/*--------------------------------*- C++ -*----------------------------------*\
| =========                 |                                                 |
| \\      /  F ield         | OpenFOAM: The Open Source CFD Toolbox           |
|  \\    /   O peration     | Version:  2.3.0                                 |
|   \\  /    A nd           | Web:      www.OpenFOAM.org                      |
|    \\/     M anipulation  |                                                 |
\*---------------------------------------------------------------------------*/
FoamFile
{
    version     2.0;
    format      ascii;
    class       dictionary;
    object      blockMeshDict;
}
// * * * * * * * * * * * * * * * * * * * * * * * * * * * * * * * * * * * * * //

convertToMeters 1;

vertices
(
        (-7.34   1.0    -.1  )//0
        (15.4   0.0    -.1  )//1
        (15.4   5.0    -.1  )//2
        (-7.34   5.0    -.1  )//3
        (-7.34   1.0     .1  )//4
        (15.4   0.0     .1  )//5
        (15.4   5.0     .1  )//6
        (-7.34   5.0     .1  )//7
        (15.4   9.48  -.1  )//8
        (-7.34   9.48  -.1  )//9
        (-7.34   9.48   .1  )//10
        (15.4   9.48   .1  )//11
);

blocks
(
        //hex (0 1 3 2 6 7 9 8) (40 25 30) simpleGrading (1 10.7028 1)
        hex (0 1 2 3 4 5 6 7)   (180 100 1) simpleGrading (1 10 1)
        hex (3 2 8 9 7 6 11 10) (180 100 1) simpleGrading (1 .1 1)
);


//EDGES-START
edges
(
spline 0 1 (
(-7.3 1.0 -.1)
(-7.29239746582 1.0 -.1)
(-7.28479493164 1.0 -.1)
(-7.27719239747 1.0 -.1)
(-7.26958986329 1.0 -.1)
(-7.26198732911 1.0 -.1)
(-7.25438479493 1.0 -.1)
(-7.24678226075 1.0 -.1)
(-7.23917972658 1.0 -.1)
(-7.2315771924 1.0 -.1)
(-7.22397465822 1.0 -.1)
(-7.21637212404 1.0 -.1)
(-7.20876958986 1.0 -.1)
(-7.20116705569 1.0 -.1)
(-7.19356452151 1.0 -.1)
(-7.18596198733 1.0 -.1)
(-7.17835945315 1.0 -.1)
(-7.17075691897 1.0 -.1)
(-7.16315438479 1.0 -.1)
(-7.15555185062 1.0 -.1)
(-7.14794931644 1.0 -.1)
(-7.14034678226 1.0 -.1)
(-7.13274424808 1.0 -.1)
(-7.1251417139 1.0 -.1)
(-7.11753917973 1.0 -.1)
(-7.10993664555 1.0 -.1)
(-7.10233411137 1.0 -.1)
(-7.09473157719 1.0 -.1)
(-7.08712904301 1.0 -.1)
(-7.07952650884 1.0 -.1)
(-7.07192397466 1.0 -.1)
(-7.06432144048 1.0 -.1)
(-7.0567189063 1.0 -.1)
(-7.04911637212 1.0 -.1)
(-7.04151383795 1.0 -.1)
(-7.03391130377 1.0 -.1)
(-7.02630876959 1.0 -.1)
(-7.01870623541 1.0 -.1)
(-7.01110370123 1.0 -.1)
(-7.00350116706 1.0 -.1)
(-6.99589863288 1.0 -.1)
(-6.9882960987 1.0 -.1)
(-6.98069356452 1.0 -.1)
(-6.97309103034 1.0 -.1)
(-6.96548849617 1.0 -.1)
(-6.95788596199 1.0 -.1)
(-6.95028342781 1.0 -.1)
(-6.94268089363 1.0 -.1)
(-6.93507835945 1.0 -.1)
(-6.92747582528 1.0 -.1)
(-6.9198732911 1.0 -.1)
(-6.91227075692 1.0 -.1)
(-6.90466822274 1.0 -.1)
(-6.89706568856 1.0 -.1)
(-6.88946315438 1.0 -.1)
(-6.88186062021 1.0 -.1)
(-6.87425808603 1.0 -.1)
(-6.86665555185 1.0 -.1)
(-6.85905301767 1.0 -.1)
(-6.85145048349 1.0 -.1)
(-6.84384794932 1.0 -.1)
(-6.83624541514 1.0 -.1)
(-6.82864288096 1.0 -.1)
(-6.82104034678 1.0 -.1)
(-6.8134378126 1.0 -.1)
(-6.80583527843 1.0 -.1)
(-6.79823274425 1.0 -.1)
(-6.79063021007 1.0 -.1)
(-6.78302767589 1.0 -.1)
(-6.77542514171 1.0 -.1)
(-6.76782260754 1.0 -.1)
(-6.76022007336 1.0 -.1)
(-6.75261753918 1.0 -.1)
(-6.745015005 1.0 -.1)
(-6.73741247082 1.0 -.1)
(-6.72980993665 1.0 -.1)
(-6.72220740247 1.0 -.1)
(-6.71460486829 1.0 -.1)
(-6.70700233411 1.0 -.1)
(-6.69939979993 1.0 -.1)
(-6.69179726576 1.0 -.1)
(-6.68419473158 1.0 -.1)
(-6.6765921974 1.0 -.1)
(-6.66898966322 1.0 -.1)
(-6.66138712904 1.0 -.1)
(-6.65378459486 1.0 -.1)
(-6.64618206069 1.0 -.1)
(-6.63857952651 1.0 -.1)
(-6.63097699233 1.0 -.1)
(-6.62337445815 1.0 -.1)
(-6.61577192397 1.0 -.1)
(-6.6081693898 1.0 -.1)
(-6.60056685562 1.0 -.1)
(-6.59296432144 1.0 -.1)
(-6.58536178726 1.0 -.1)
(-6.57775925308 1.0 -.1)
(-6.57015671891 1.0 -.1)
(-6.56255418473 1.0 -.1)
(-6.55495165055 1.0 -.1)
(-6.54734911637 1.0 -.1)
(-6.53974658219 1.0 -.1)
(-6.53214404802 1.0 -.1)
(-6.52454151384 1.0 -.1)
(-6.51693897966 1.0 -.1)
(-6.50933644548 1.0 -.1)
(-6.5017339113 1.0 -.1)
(-6.49413137713 1.0 -.1)
(-6.48652884295 1.0 -.1)
(-6.47892630877 1.0 -.1)
(-6.47132377459 1.0 -.1)
(-6.46372124041 1.0 -.1)
(-6.45611870624 1.0 -.1)
(-6.44851617206 1.0 -.1)
(-6.44091363788 1.0 -.1)
(-6.4333111037 1.0 -.1)
(-6.42570856952 1.0 -.1)
(-6.41810603535 1.0 -.1)
(-6.41050350117 1.0 -.1)
(-6.40290096699 1.0 -.1)
(-6.39529843281 1.0 -.1)
(-6.38769589863 1.0 -.1)
(-6.38009336445 1.0 -.1)
(-6.37249083028 1.0 -.1)
(-6.3648882961 1.0 -.1)
(-6.35728576192 1.0 -.1)
(-6.34968322774 1.0 -.1)
(-6.34208069356 1.0 -.1)
(-6.33447815939 1.0 -.1)
(-6.32687562521 1.0 -.1)
(-6.31927309103 1.0 -.1)
(-6.31167055685 1.0 -.1)
(-6.30406802267 1.0 -.1)
(-6.2964654885 1.0 -.1)
(-6.28886295432 1.0 -.1)
(-6.28126042014 1.0 -.1)
(-6.27365788596 1.0 -.1)
(-6.26605535178 1.0 -.1)
(-6.25845281761 1.0 -.1)
(-6.25085028343 1.0 -.1)
(-6.24324774925 1.0 -.1)
(-6.23564521507 1.0 -.1)
(-6.22804268089 1.0 -.1)
(-6.22044014672 1.0 -.1)
(-6.21283761254 1.0 -.1)
(-6.20523507836 1.0 -.1)
(-6.19763254418 1.0 -.1)
(-6.19003001 1.0 -.1)
(-6.18242747583 1.0 -.1)
(-6.17482494165 1.0 -.1)
(-6.16722240747 1.0 -.1)
(-6.15961987329 1.0 -.1)
(-6.15201733911 1.0 -.1)
(-6.14441480493 1.0 -.1)
(-6.13681227076 1.0 -.1)
(-6.12920973658 1.0 -.1)
(-6.1216072024 1.0 -.1)
(-6.11400466822 1.0 -.1)
(-6.10640213404 1.0 -.1)
(-6.09879959987 1.0 -.1)
(-6.09119706569 1.0 -.1)
(-6.08359453151 1.0 -.1)
(-6.07599199733 1.0 -.1)
(-6.06838946315 1.0 -.1)
(-6.06078692898 1.0 -.1)
(-6.0531843948 1.0 -.1)
(-6.04558186062 1.0 -.1)
(-6.03797932644 1.0 -.1)
(-6.03037679226 1.0 -.1)
(-6.02277425809 1.0 -.1)
(-6.01517172391 1.0 -.1)
(-6.00756918973 1.0 -.1)
(-5.99996665555 1.0 -.1)
(-5.99236412137 1.0 -.1)
(-5.9847615872 1.0 -.1)
(-5.97715905302 1.0 -.1)
(-5.96955651884 1.0 -.1)
(-5.96195398466 1.0 -.1)
(-5.95435145048 1.0 -.1)
(-5.94674891631 1.0 -.1)
(-5.93914638213 1.0 -.1)
(-5.93154384795 1.0 -.1)
(-5.92394131377 1.0 -.1)
(-5.91633877959 1.0 -.1)
(-5.90873624542 1.0 -.1)
(-5.90113371124 1.0 -.1)
(-5.89353117706 1.0 -.1)
(-5.88592864288 1.0 -.1)
(-5.8783261087 1.0 -.1)
(-5.87072357452 1.0 -.1)
(-5.86312104035 1.0 -.1)
(-5.85551850617 1.0 -.1)
(-5.84791597199 1.0 -.1)
(-5.84031343781 1.0 -.1)
(-5.83271090363 1.0 -.1)
(-5.82510836946 1.0 -.1)
(-5.81750583528 1.0 -.1)
(-5.8099033011 1.0 -.1)
(-5.80230076692 1.0 -.1)
(-5.79469823274 1.0 -.1)
(-5.78709569857 1.0 -.1)
(-5.77949316439 1.0 -.1)
(-5.77189063021 1.0 -.1)
(-5.76428809603 1.0 -.1)
(-5.75668556185 1.0 -.1)
(-5.74908302768 1.0 -.1)
(-5.7414804935 1.0 -.1)
(-5.73387795932 1.0 -.1)
(-5.72627542514 1.0 -.1)
(-5.71867289096 1.0 -.1)
(-5.71107035679 1.0 -.1)
(-5.70346782261 1.0 -.1)
(-5.69586528843 1.0 -.1)
(-5.68826275425 1.0 -.1)
(-5.68066022007 1.0 -.1)
(-5.6730576859 1.0 -.1)
(-5.66545515172 1.0 -.1)
(-5.65785261754 1.0 -.1)
(-5.65025008336 1.0 -.1)
(-5.64264754918 1.0 -.1)
(-5.63504501501 1.0 -.1)
(-5.62744248083 1.0 -.1)
(-5.61983994665 1.0 -.1)
(-5.61223741247 1.0 -.1)
(-5.60463487829 1.0 -.1)
(-5.59703234411 1.0 -.1)
(-5.58942980994 1.0 -.1)
(-5.58182727576 1.0 -.1)
(-5.57422474158 1.0 -.1)
(-5.5666222074 1.0 -.1)
(-5.55901967322 1.0 -.1)
(-5.55141713905 1.0 -.1)
(-5.54381460487 1.0 -.1)
(-5.53621207069 1.0 -.1)
(-5.52860953651 1.0 -.1)
(-5.52100700233 1.0 -.1)
(-5.51340446816 1.0 -.1)
(-5.50580193398 1.0 -.1)
(-5.4981993998 1.0 -.1)
(-5.49059686562 1.0 -.1)
(-5.48299433144 1.0 -.1)
(-5.47539179727 1.0 -.1)
(-5.46778926309 1.0 -.1)
(-5.46018672891 1.0 -.1)
(-5.45258419473 1.0 -.1)
(-5.44498166055 1.0 -.1)
(-5.43737912638 1.0 -.1)
(-5.4297765922 1.0 -.1)
(-5.42217405802 1.0 -.1)
(-5.41457152384 1.0 -.1)
(-5.40696898966 1.0 -.1)
(-5.39936645549 1.0 -.1)
(-5.39176392131 1.0 -.1)
(-5.38416138713 1.0 -.1)
(-5.37655885295 1.0 -.1)
(-5.36895631877 1.0 -.1)
(-5.36135378459 1.0 -.1)
(-5.35375125042 1.0 -.1)
(-5.34614871624 1.0 -.1)
(-5.33854618206 1.0 -.1)
(-5.33094364788 1.0 -.1)
(-5.3233411137 1.0 -.1)
(-5.31573857953 1.0 -.1)
(-5.30813604535 1.0 -.1)
(-5.30053351117 1.0 -.1)
(-5.29293097699 1.0 -.1)
(-5.28532844281 1.0 -.1)
(-5.27772590864 1.0 -.1)
(-5.27012337446 1.0 -.1)
(-5.26252084028 1.0 -.1)
(-5.2549183061 1.0 -.1)
(-5.24731577192 1.0 -.1)
(-5.23971323775 1.0 -.1)
(-5.23211070357 1.0 -.1)
(-5.22450816939 1.0 -.1)
(-5.21690563521 1.0 -.1)
(-5.20930310103 1.0 -.1)
(-5.20170056686 1.0 -.1)
(-5.19409803268 1.0 -.1)
(-5.1864954985 1.0 -.1)
(-5.17889296432 1.0 -.1)
(-5.17129043014 1.0 -.1)
(-5.16368789597 1.0 -.1)
(-5.15608536179 1.0 -.1)
(-5.14848282761 1.0 -.1)
(-5.14088029343 1.0 -.1)
(-5.13327775925 1.0 -.1)
(-5.12567522508 1.0 -.1)
(-5.1180726909 1.0 -.1)
(-5.11047015672 1.0 -.1)
(-5.10286762254 1.0 -.1)
(-5.09526508836 1.0 -.1)
(-5.08766255418 1.0 -.1)
(-5.08006002001 1.0 -.1)
(-5.07245748583 1.0 -.1)
(-5.06485495165 1.0 -.1)
(-5.05725241747 1.0 -.1)
(-5.04964988329 1.0 -.1)
(-5.04204734912 1.0 -.1)
(-5.03444481494 1.0 -.1)
(-5.02684228076 1.0 -.1)
(-5.01923974658 1.0 -.1)
(-5.0116372124 1.0 -.1)
(-5.00403467823 1.0 -.1)
(-4.99643214405 1.0 -.1)
(-4.98882960987 1.0 -.1)
(-4.98122707569 1.0 -.1)
(-4.97362454151 1.0 -.1)
(-4.96602200734 1.0 -.1)
(-4.95841947316 1.0 -.1)
(-4.95081693898 1.0 -.1)
(-4.9432144048 1.0 -.1)
(-4.93561187062 1.0 -.1)
(-4.92800933645 1.0 -.1)
(-4.92040680227 1.0 -.1)
(-4.91280426809 1.0 -.1)
(-4.90520173391 1.0 -.1)
(-4.89759919973 1.0 -.1)
(-4.88999666556 1.0 -.1)
(-4.88239413138 1.0 -.1)
(-4.8747915972 1.0 -.1)
(-4.86718906302 1.0 -.1)
(-4.85958652884 1.0 -.1)
(-4.85198399466 1.0 -.1)
(-4.84438146049 1.0 -.1)
(-4.83677892631 1.0 -.1)
(-4.82917639213 1.0 -.1)
(-4.82157385795 1.0 -.1)
(-4.81397132377 1.0 -.1)
(-4.8063687896 1.0 -.1)
(-4.79876625542 1.0 -.1)
(-4.79116372124 1.0 -.1)
(-4.78356118706 1.0 -.1)
(-4.77595865288 1.0 -.1)
(-4.76835611871 1.0 -.1)
(-4.76075358453 1.0 -.1)
(-4.75315105035 1.0 -.1)
(-4.74554851617 1.0 -.1)
(-4.73794598199 1.0 -.1)
(-4.73034344782 1.0 -.1)
(-4.72274091364 1.0 -.1)
(-4.71513837946 1.0 -.1)
(-4.70753584528 1.0 -.1)
(-4.6999333111 1.0 -.1)
(-4.69233077693 1.0 -.1)
(-4.68472824275 1.0 -.1)
(-4.67712570857 1.0 -.1)
(-4.66952317439 1.0 -.1)
(-4.66192064021 1.0 -.1)
(-4.65431810604 1.0 -.1)
(-4.64671557186 1.0 -.1)
(-4.63911303768 1.0 -.1)
(-4.6315105035 1.0 -.1)
(-4.62390796932 1.0 -.1)
(-4.61630543515 1.0 -.1)
(-4.60870290097 1.0 -.1)
(-4.60110036679 1.0 -.1)
(-4.59349783261 1.0 -.1)
(-4.58589529843 1.0 -.1)
(-4.57829276425 1.0 -.1)
(-4.57069023008 1.0 -.1)
(-4.5630876959 1.0 -.1)
(-4.55548516172 1.0 -.1)
(-4.54788262754 1.0 -.1)
(-4.54028009336 1.0 -.1)
(-4.53267755919 1.0 -.1)
(-4.52507502501 1.0 -.1)
(-4.51747249083 1.0 -.1)
(-4.50986995665 1.0 -.1)
(-4.50226742247 1.0 -.1)
(-4.4946648883 1.0 -.1)
(-4.48706235412 1.0 -.1)
(-4.47945981994 1.0 -.1)
(-4.47185728576 1.0 -.1)
(-4.46425475158 1.0 -.1)
(-4.45665221741 1.0 -.1)
(-4.44904968323 1.0 -.1)
(-4.44144714905 1.0 -.1)
(-4.43384461487 1.0 -.1)
(-4.42624208069 1.0 -.1)
(-4.41863954652 1.0 -.1)
(-4.41103701234 1.0 -.1)
(-4.40343447816 1.0 -.1)
(-4.39583194398 1.0 -.1)
(-4.3882294098 1.0 -.1)
(-4.38062687563 1.0 -.1)
(-4.37302434145 1.0 -.1)
(-4.36542180727 1.0 -.1)
(-4.35781927309 1.0 -.1)
(-4.35021673891 1.0 -.1)
(-4.34261420473 1.0 -.1)
(-4.33501167056 1.0 -.1)
(-4.32740913638 1.0 -.1)
(-4.3198066022 1.0 -.1)
(-4.31220406802 1.0 -.1)
(-4.30460153384 1.0 -.1)
(-4.29699899967 1.0 -.1)
(-4.28939646549 1.0 -.1)
(-4.28179393131 1.0 -.1)
(-4.27419139713 1.0 -.1)
(-4.26658886295 1.0 -.1)
(-4.25898632878 1.0 -.1)
(-4.2513837946 1.0 -.1)
(-4.24378126042 1.0 -.1)
(-4.23617872624 1.0 -.1)
(-4.22857619206 1.0 -.1)
(-4.22097365789 1.0 -.1)
(-4.21337112371 1.0 -.1)
(-4.20576858953 1.0 -.1)
(-4.19816605535 1.0 -.1)
(-4.19056352117 1.0 -.1)
(-4.182960987 1.0 -.1)
(-4.17535845282 1.0 -.1)
(-4.16775591864 1.0 -.1)
(-4.16015338446 1.0 -.1)
(-4.15255085028 1.0 -.1)
(-4.14494831611 1.0 -.1)
(-4.13734578193 1.0 -.1)
(-4.12974324775 1.0 -.1)
(-4.12214071357 1.0 -.1)
(-4.11453817939 1.0 -.1)
(-4.10693564522 1.0 -.1)
(-4.09933311104 1.0 -.1)
(-4.09173057686 1.0 -.1)
(-4.08412804268 1.0 -.1)
(-4.0765255085 1.0 -.1)
(-4.06892297432 1.0 -.1)
(-4.06132044015 1.0 -.1)
(-4.05371790597 1.0 -.1)
(-4.04611537179 1.0 -.1)
(-4.03851283761 1.0 -.1)
(-4.03091030343 1.0 -.1)
(-4.02330776926 1.0 -.1)
(-4.01570523508 1.0 -.1)
(-4.0081027009 1.0 -.1)
(-4.00050016672 1.0 -.1)
(-3.99289763254 1.0 -.1)
(-3.98529509837 1.0 -.1)
(-3.97769256419 1.0 -.1)
(-3.97009003001 1.0 -.1)
(-3.96248749583 1.0 -.1)
(-3.95488496165 1.0 -.1)
(-3.94728242748 1.0 -.1)
(-3.9396798933 1.0 -.1)
(-3.93207735912 1.0 -.1)
(-3.92447482494 1.0 -.1)
(-3.91687229076 1.0 -.1)
(-3.90926975659 1.0 -.1)
(-3.90166722241 1.0 -.1)
(-3.89406468823 1.0 -.1)
(-3.88646215405 1.0 -.1)
(-3.87885961987 1.0 -.1)
(-3.8712570857 1.0 -.1)
(-3.86365455152 1.0 -.1)
(-3.85605201734 1.0 -.1)
(-3.84844948316 1.0 -.1)
(-3.84084694898 1.0 -.1)
(-3.8332444148 1.0 -.1)
(-3.82564188063 1.0 -.1)
(-3.81803934645 1.0 -.1)
(-3.81043681227 1.0 -.1)
(-3.80283427809 1.0 -.1)
(-3.79523174391 1.0 -.1)
(-3.78762920974 1.0 -.1)
(-3.78002667556 1.0 -.1)
(-3.77242414138 1.0 -.1)
(-3.7648216072 1.0 -.1)
(-3.75721907302 1.0 -.1)
(-3.74961653885 1.0 -.1)
(-3.74201400467 1.0 -.1)
(-3.73441147049 1.0 -.1)
(-3.72680893631 1.0 -.1)
(-3.71920640213 1.0 -.1)
(-3.71160386796 1.0 -.1)
(-3.70400133378 1.0 -.1)
(-3.6963987996 1.0 -.1)
(-3.68879626542 1.0 -.1)
(-3.68119373124 1.0 -.1)
(-3.67359119707 1.0 -.1)
(-3.66598866289 1.0 -.1)
(-3.65838612871 1.0 -.1)
(-3.65078359453 1.0 -.1)
(-3.64318106035 1.0 -.1)
(-3.63557852618 1.0 -.1)
(-3.627975992 1.0 -.1)
(-3.62037345782 1.0 -.1)
(-3.61277092364 1.0 -.1)
(-3.60516838946 1.0 -.1)
(-3.59756585529 1.0 -.1)
(-3.58996332111 1.0 -.1)
(-3.58236078693 1.0 -.1)
(-3.57475825275 1.0 -.1)
(-3.56715571857 1.0 -.1)
(-3.55955318439 1.0 -.1)
(-3.55195065022 1.0 -.1)
(-3.54434811604 1.0 -.1)
(-3.53674558186 1.0 -.1)
(-3.52914304768 1.0 -.1)
(-3.5215405135 1.0 -.1)
(-3.51393797933 1.0 -.1)
(-3.50633544515 1.0 -.1)
(-3.49873291097 1.0 -.1)
(-3.49113037679 1.0 -.1)
(-3.48352784261 1.0 -.1)
(-3.47592530844 1.0 -.1)
(-3.46832277426 1.0 -.1)
(-3.46072024008 1.0 -.1)
(-3.4531177059 1.0 -.1)
(-3.44551517172 1.0 -.1)
(-3.43791263755 1.0 -.1)
(-3.43031010337 1.0 -.1)
(-3.42270756919 1.0 -.1)
(-3.41510503501 1.0 -.1)
(-3.40750250083 1.0 -.1)
(-3.39989996666 1.0 -.1)
(-3.39229743248 1.0 -.1)
(-3.3846948983 1.0 -.1)
(-3.37709236412 1.0 -.1)
(-3.36948982994 1.0 -.1)
(-3.36188729577 1.0 -.1)
(-3.35428476159 1.0 -.1)
(-3.34668222741 1.0 -.1)
(-3.33907969323 1.0 -.1)
(-3.33147715905 1.0 -.1)
(-3.32387462487 1.0 -.1)
(-3.3162720907 1.0 -.1)
(-3.30866955652 1.0 -.1)
(-3.30106702234 1.0 -.1)
(-3.29346448816 1.0 -.1)
(-3.28586195398 1.0 -.1)
(-3.27825941981 1.0 -.1)
(-3.27065688563 1.0 -.1)
(-3.26305435145 1.0 -.1)
(-3.25545181727 1.0 -.1)
(-3.24784928309 1.0 -.1)
(-3.24024674892 1.0 -.1)
(-3.23264421474 1.0 -.1)
(-3.22504168056 1.0 -.1)
(-3.21743914638 1.0 -.1)
(-3.2098366122 1.0 -.1)
(-3.20223407803 1.0 -.1)
(-3.19463154385 1.0 -.1)
(-3.18702900967 1.0 -.1)
(-3.17942647549 1.0 -.1)
(-3.17182394131 1.0 -.1)
(-3.16422140714 1.0 -.1)
(-3.15661887296 1.0 -.1)
(-3.14901633878 1.0 -.1)
(-3.1414138046 1.0 -.1)
(-3.13381127042 1.0 -.1)
(-3.12620873625 1.0 -.1)
(-3.11860620207 1.0 -.1)
(-3.11100366789 1.0 -.1)
(-3.10340113371 1.0 -.1)
(-3.09579859953 1.0 -.1)
(-3.08819606536 1.0 -.1)
(-3.08059353118 1.0 -.1)
(-3.072990997 1.0 -.1)
(-3.06538846282 1.0 -.1)
(-3.05778592864 1.0 -.1)
(-3.05018339446 1.0 -.1)
(-3.04258086029 1.0 -.1)
(-3.03497832611 1.0 -.1)
(-3.02737579193 1.0 -.1)
(-3.01977325775 1.0 -.1)
(-3.01217072357 1.0 -.1)
(-3.0045681894 1.0 -.1)
(-2.99696565522 1.0 -.1)
(-2.98936312104 1.0 -.1)
(-2.98176058686 1.0 -.1)
(-2.97415805268 1.0 -.1)
(-2.96655551851 1.0 -.1)
(-2.95895298433 1.0 -.1)
(-2.95135045015 1.0 -.1)
(-2.94374791597 1.0 -.1)
(-2.93614538179 1.0 -.1)
(-2.92854284762 1.0 -.1)
(-2.92094031344 1.0 -.1)
(-2.91333777926 1.0 -.1)
(-2.90573524508 1.0 -.1)
(-2.8981327109 1.0 -.1)
(-2.89053017673 1.0 -.1)
(-2.88292764255 1.0 -.1)
(-2.87532510837 1.0 -.1)
(-2.86772257419 1.0 -.1)
(-2.86012004001 1.0 -.1)
(-2.85251750584 1.0 -.1)
(-2.84491497166 1.0 -.1)
(-2.83731243748 1.0 -.1)
(-2.8297099033 1.0 -.1)
(-2.82210736912 1.0 -.1)
(-2.81450483494 1.0 -.1)
(-2.80690230077 1.0 -.1)
(-2.79929976659 1.0 -.1)
(-2.79169723241 1.0 -.1)
(-2.78409469823 1.0 -.1)
(-2.77649216405 1.0 -.1)
(-2.76888962988 1.0 -.1)
(-2.7612870957 1.0 -.1)
(-2.75368456152 1.0 -.1)
(-2.74608202734 1.0 -.1)
(-2.73847949316 1.0 -.1)
(-2.73087695899 1.0 -.1)
(-2.72327442481 1.0 -.1)
(-2.71567189063 1.0 -.1)
(-2.70806935645 1.0 -.1)
(-2.70046682227 1.0 -.1)
(-2.6928642881 1.0 -.1)
(-2.68526175392 1.0 -.1)
(-2.67765921974 1.0 -.1)
(-2.67005668556 1.0 -.1)
(-2.66245415138 1.0 -.1)
(-2.65485161721 1.0 -.1)
(-2.64724908303 1.0 -.1)
(-2.63964654885 1.0 -.1)
(-2.63204401467 1.0 -.1)
(-2.62444148049 1.0 -.1)
(-2.61683894632 1.0 -.1)
(-2.60923641214 1.0 -.1)
(-2.60163387796 1.0 -.1)
(-2.59403134378 1.0 -.1)
(-2.5864288096 1.0 -.1)
(-2.57882627543 1.0 -.1)
(-2.57122374125 1.0 -.1)
(-2.56362120707 1.0 -.1)
(-2.55601867289 1.0 -.1)
(-2.54841613871 1.0 -.1)
(-2.54081360453 1.0 -.1)
(-2.53321107036 1.0 -.1)
(-2.52560853618 1.0 -.1)
(-2.518006002 1.0 -.1)
(-2.51040346782 1.0 -.1)
(-2.50280093364 1.0 -.1)
(-2.49519839947 1.0 -.1)
(-2.48759586529 1.0 -.1)
(-2.47999333111 1.0 -.1)
(-2.47239079693 1.0 -.1)
(-2.46478826275 1.0 -.1)
(-2.45718572858 1.0 -.1)
(-2.4495831944 1.0 -.1)
(-2.44198066022 1.0 -.1)
(-2.43437812604 1.0 -.1)
(-2.42677559186 1.0 -.1)
(-2.41917305769 1.0 -.1)
(-2.41157052351 1.0 -.1)
(-2.40396798933 1.0 -.1)
(-2.39636545515 1.0 -.1)
(-2.38876292097 1.0 -.1)
(-2.3811603868 1.0 -.1)
(-2.37355785262 1.0 -.1)
(-2.36595531844 1.0 -.1)
(-2.35835278426 1.0 -.1)
(-2.35075025008 1.0 -.1)
(-2.34314771591 1.0 -.1)
(-2.33554518173 1.0 -.1)
(-2.32794264755 1.0 -.1)
(-2.32034011337 1.0 -.1)
(-2.31273757919 1.0 -.1)
(-2.30513504502 1.0 -.1)
(-2.29753251084 1.0 -.1)
(-2.28992997666 1.0 -.1)
(-2.28232744248 1.0 -.1)
(-2.2747249083 1.0 -.1)
(-2.26712237412 1.0 -.1)
(-2.25951983995 1.0 -.1)
(-2.25191730577 1.0 -.1)
(-2.24431477159 1.0 -.1)
(-2.23671223741 1.0 -.1)
(-2.22910970323 1.0 -.1)
(-2.22150716906 1.0 -.1)
(-2.21390463488 1.0 -.1)
(-2.2063021007 1.0 -.1)
(-2.19869956652 1.0 -.1)
(-2.19109703234 1.0 -.1)
(-2.18349449817 1.0 -.1)
(-2.17589196399 1.0 -.1)
(-2.16828942981 1.0 -.1)
(-2.16068689563 1.0 -.1)
(-2.15308436145 1.0 -.1)
(-2.14548182728 1.0 -.1)
(-2.1378792931 1.0 -.1)
(-2.13027675892 1.0 -.1)
(-2.12267422474 1.0 -.1)
(-2.11507169056 1.0 -.1)
(-2.10746915639 1.0 -.1)
(-2.09986662221 1.0 -.1)
(-2.09226408803 1.0 -.1)
(-2.08466155385 1.0 -.1)
(-2.07705901967 1.0 -.1)
(-2.0694564855 1.0 -.1)
(-2.06185395132 1.0 -.1)
(-2.05425141714 1.0 -.1)
(-2.04664888296 1.0 -.1)
(-2.03904634878 1.0 -.1)
(-2.0314438146 1.0 -.1)
(-2.02384128043 1.0 -.1)
(-2.01623874625 1.0 -.1)
(-2.00863621207 1.0 -.1)
(-2.00103367789 1.0 -.1)
(-1.99343114371 1.0 -.1)
(-1.98582860954 1.0 -.1)
(-1.97822607536 1.0 -.1)
(-1.97062354118 1.0 -.1)
(-1.963021007 1.0 -.1)
(-1.95541847282 1.0 -.1)
(-1.94781593865 1.0 -.1)
(-1.94021340447 1.0 -.1)
(-1.93261087029 1.0 -.1)
(-1.92500833611 1.0 -.1)
(-1.91740580193 1.0 -.1)
(-1.90980326776 1.0 -.1)
(-1.90220073358 1.0 -.1)
(-1.8945981994 1.0 -.1)
(-1.88699566522 1.0 -.1)
(-1.87939313104 1.0 -.1)
(-1.87179059687 1.0 -.1)
(-1.86418806269 1.0 -.1)
(-1.85658552851 1.0 -.1)
(-1.84898299433 1.0 -.1)
(-1.84138046015 1.0 -.1)
(-1.83377792598 1.0 -.1)
(-1.8261753918 1.0 -.1)
(-1.81857285762 1.0 -.1)
(-1.81097032344 1.0 -.1)
(-1.80336778926 1.0 -.1)
(-1.79576525509 1.0 -.1)
(-1.78816272091 1.0 -.1)
(-1.78056018673 1.0 -.1)
(-1.77295765255 1.0 -.1)
(-1.76535511837 1.0 -.1)
(-1.75775258419 1.0 -.1)
(-1.75015005002 1.0 -.1)
(-1.74254751584 1.0 -.1)
(-1.73494498166 1.0 -.1)
(-1.72734244748 1.0 -.1)
(-1.7197399133 1.0 -.1)
(-1.71213737913 1.0 -.1)
(-1.70453484495 1.0 -.1)
(-1.69693231077 1.0 -.1)
(-1.68932977659 1.0 -.1)
(-1.68172724241 1.0 -.1)
(-1.67412470824 1.0 -.1)
(-1.66652217406 1.0 -.1)
(-1.65891963988 1.0 -.1)
(-1.6513171057 1.0 -.1)
(-1.64371457152 1.0 -.1)
(-1.63611203735 1.0 -.1)
(-1.62850950317 1.0 -.1)
(-1.62090696899 1.0 -.1)
(-1.61330443481 1.0 -.1)
(-1.60570190063 1.0 -.1)
(-1.59809936646 1.0 -.1)
(-1.59049683228 1.0 -.1)
(-1.5828942981 1.0 -.1)
(-1.57529176392 1.0 -.1)
(-1.56768922974 1.0 -.1)
(-1.56008669557 1.0 -.1)
(-1.55248416139 1.0 -.1)
(-1.54488162721 1.0 -.1)
(-1.53727909303 1.0 -.1)
(-1.52967655885 1.0 -.1)
(-1.52207402467 1.0 -.1)
(-1.5144714905 1.0 -.1)
(-1.50686895632 1.0 -.1)
(-1.49926642214 1.0 -.1)
(-1.49166388796 1.0 -.1)
(-1.48406135378 1.0 -.1)
(-1.47645881961 1.0 -.1)
(-1.46885628543 1.0 -.1)
(-1.46125375125 1.0 -.1)
(-1.45365121707 1.0 -.1)
(-1.44604868289 1.0 -.1)
(-1.43844614872 1.0 -.1)
(-1.43084361454 1.0 -.1)
(-1.42324108036 1.0 -.1)
(-1.41563854618 1.0 -.1)
(-1.408036012 1.0 -.1)
(-1.40043347783 1.0 -.1)
(-1.39283094365 1.0 -.1)
(-1.38522840947 1.0 -.1)
(-1.37762587529 1.0 -.1)
(-1.37002334111 1.0 -.1)
(-1.36242080694 1.0 -.1)
(-1.35481827276 1.0 -.1)
(-1.34721573858 1.0 -.1)
(-1.3396132044 1.0 -.1)
(-1.33201067022 1.0 -.1)
(-1.32440813605 1.0 -.1)
(-1.31680560187 1.0 -.1)
(-1.30920306769 1.0 -.1)
(-1.30160053351 1.0 -.1)
(-1.29399799933 1.0 -.1)
(-1.28639546516 1.0 -.1)
(-1.27879293098 1.0 -.1)
(-1.2711903968 1.0 -.1)
(-1.26358786262 1.0 -.1)
(-1.25598532844 1.0 -.1)
(-1.24838279426 1.0 -.1)
(-1.24078026009 1.0 -.1)
(-1.23317772591 1.0 -.1)
(-1.22557519173 1.0 -.1)
(-1.21797265755 1.0 -.1)
(-1.21037012337 1.0 -.1)
(-1.2027675892 1.0 -.1)
(-1.19516505502 1.0 -.1)
(-1.18756252084 1.0 -.1)
(-1.17995998666 1.0 -.1)
(-1.17235745248 1.0 -.1)
(-1.16475491831 1.0 -.1)
(-1.15715238413 1.0 -.1)
(-1.14954984995 1.0 -.1)
(-1.14194731577 1.0 -.1)
(-1.13434478159 1.0 -.1)
(-1.12674224742 1.0 -.1)
(-1.11913971324 1.0 -.1)
(-1.11153717906 1.0 -.1)
(-1.10393464488 1.0 -.1)
(-1.0963321107 1.0 -.1)
(-1.08872957653 1.0 -.1)
(-1.08112704235 1.0 -.1)
(-1.07352450817 1.0 -.1)
(-1.06592197399 1.0 -.1)
(-1.05831943981 1.0 -.1)
(-1.05071690564 1.0 -.1)
(-1.04311437146 1.0 -.1)
(-1.03551183728 1.0 -.1)
(-1.0279093031 1.0 -.1)
(-1.02030676892 1.0 -.1)
(-1.01270423474 1.0 -.1)
(-1.00510170057 1.0 -.1)
(-0.997499166389 1.0 -.1)
(-0.989896632211 1.0 -.1)
(-0.982294098033 1.0 -.1)
(-0.974691563855 1.0 -.1)
(-0.967089029677 1.0 -.1)
(-0.959486495498 1.0 -.1)
(-0.95188396132 1.0 -.1)
(-0.944281427142 1.0 -.1)
(-0.936678892964 1.0 -.1)
(-0.929076358786 1.0 -.1)
(-0.921473824608 1.0 -.1)
(-0.91387129043 1.0 -.1)
(-0.906268756252 1.0 -.1)
(-0.898666222074 1.0 -.1)
(-0.891063687896 1.0 -.1)
(-0.883461153718 1.0 -.1)
(-0.87585861954 1.0 -.1)
(-0.868256085362 1.0 -.1)
(-0.860653551184 1.0 -.1)
(-0.853051017006 1.0 -.1)
(-0.845448482828 1.0 -.1)
(-0.83784594865 1.0 -.1)
(-0.830243414471 1.0 -.1)
(-0.822640880293 1.0 -.1)
(-0.815038346115 1.0 -.1)
(-0.807435811937 1.0 -.1)
(-0.799833277759 1.0 -.1)
(-0.792230743581 1.0 -.1)
(-0.784628209403 1.0 -.1)
(-0.777025675225 1.0 -.1)
(-0.769423141047 1.0 -.1)
(-0.761820606869 1.0 -.1)
(-0.754218072691 1.0 -.1)
(-0.746615538513 1.0 -.1)
(-0.739013004335 1.0 -.1)
(-0.731410470157 1.0 -.1)
(-0.723807935979 1.0 -.1)
(-0.716205401801 1.0 -.1)
(-0.708602867623 1.0 -.1)
(-0.701000333444 1.0 -.1)
(-0.693397799266 1.0 -.1)
(-0.685795265088 1.0 -.1)
(-0.67819273091 1.0 -.1)
(-0.670590196732 1.0 -.1)
(-0.662987662554 1.0 -.1)
(-0.655385128376 1.0 -.1)
(-0.647782594198 1.0 -.1)
(-0.64018006002 1.0 -.1)
(-0.632577525842 1.0 -.1)
(-0.624974991664 1.0 -.1)
(-0.617372457486 1.0 -.1)
(-0.609769923308 1.0 -.1)
(-0.60216738913 1.0 -.1)
(-0.594564854952 1.0 -.1)
(-0.586962320774 1.0 -.1)
(-0.579359786596 1.0 -.1)
(-0.571757252417 1.0 -.1)
(-0.564154718239 1.0 -.1)
(-0.556552184061 1.0 -.1)
(-0.548949649883 1.0 -.1)
(-0.541347115705 1.0 -.1)
(-0.533744581527 1.0 -.1)
(-0.526142047349 1.0 -.1)
(-0.518539513171 1.0 -.1)
(-0.510936978993 1.0 -.1)
(-0.503334444815 1.0 -.1)
(-0.495731910637 1.0 -.1)
(-0.488129376459 1.0 -.1)
(-0.480526842281 1.0 -.1)
(-0.472924308103 1.0 -.1)
(-0.465321773925 1.0 -.1)
(-0.457719239747 1.0 -.1)
(-0.450116705569 1.0 -.1)
(-0.44251417139 1.0 -.1)
(-0.434911637212 1.0 -.1)
(-0.427309103034 1.0 -.1)
(-0.419706568856 1.0 -.1)
(-0.412104034678 1.0 -.1)
(-0.4045015005 1.0 -.1)
(-0.396898966322 1.0 -.1)
(-0.389296432144 1.0 -.1)
(-0.381693897966 1.0 -.1)
(-0.374091363788 1.0 -.1)
(-0.36648882961 1.0 -.1)
(-0.358886295432 1.0 -.1)
(-0.351283761254 1.0 -.1)
(-0.343681227076 1.0 -.1)
(-0.336078692898 1.0 -.1)
(-0.32847615872 1.0 -.1)
(-0.320873624542 1.0 -.1)
(-0.313271090363 1.0 -.1)
(-0.305668556185 1.0 -.1)
(-0.298066022007 1.0 -.1)
(-0.290463487829 1.0 -.1)
(-0.282860953651 1.0 -.1)
(-0.275258419473 1.0 -.1)
(-0.267655885295 1.0 -.1)
(-0.260053351117 1.0 -.1)
(-0.252450816939 1.0 -.1)
(-0.244848282761 1.0 -.1)
(-0.237245748583 1.0 -.1)
(-0.229643214405 1.0 -.1)
(-0.222040680227 1.0 -.1)
(-0.214438146049 1.0 -.1)
(-0.206835611871 1.0 -.1)
(-0.199233077693 1.0 -.1)
(-0.191630543515 1.0 -.1)
(-0.184028009336 1.0 -.1)
(-0.176425475158 1.0 -.1)
(-0.16882294098 1.0 -.1)
(-0.161220406802 1.0 -.1)
(-0.153617872624 1.0 -.1)
(-0.146015338446 1.0 -.1)
(-0.138412804268 1.0 -.1)
(-0.13081027009 1.0 -.1)
(-0.123207735912 1.0 -.1)
(-0.115605201734 1.0 -.1)
(-0.108002667556 1.0 -.1)
(-0.100400133378 1.0 -.1)
(-0.0927975991997 1.0 -.1)
(-0.0851950650217 1.0 -.1)
(-0.0775925308436 1.0 -.1)
(-0.0699899966656 1.0 -.1)
(-0.0623874624875 1.0 -.1)
(-0.0547849283094 1.0 -.1)
(-0.0471823941314 1.0 -.1)
(-0.0395798599533 1.0 -.1)
(-0.0319773257753 1.0 -.1)
(-0.0243747915972 1.0 -.1)
(-0.0167722574191 1.0 -.1)
(-0.00916972324108 1.0 -.1)
(-0.00156718906302 1.0 -.1)
(0.00603534511504 0.999995482675 -.1)
(0.0136378792931 0.999976934028 -.1)
(0.0212404134712 0.999944049267 -.1)
(0.0288429476492 0.999896828041 -.1)
(0.0364454818273 0.999835269847 -.1)
(0.0440480160053 0.999759374028 -.1)
(0.0516505501834 0.999669139774 -.1)
(0.0592530843615 0.999564566123 -.1)
(0.0668556185395 0.999445651958 -.1)
(0.0744581527176 0.999312396011 -.1)
(0.0820606868956 0.999164796859 -.1)
(0.0896632210737 0.999002852926 -.1)
(0.0972657552518 0.998826562483 -.1)
(0.10486828943 0.998635923648 -.1)
(0.112470823608 0.998430934385 -.1)
(0.120073357786 0.998211592503 -.1)
(0.127675891964 0.997977895659 -.1)
(0.135278426142 0.997729841356 -.1)
(0.14288096032 0.997467426942 -.1)
(0.150483494498 0.99719064961 -.1)
(0.158086028676 0.9968995064 -.1)
(0.165688562854 0.996593994199 -.1)
(0.173291097032 0.996274109735 -.1)
(0.18089363121 0.995939849585 -.1)
(0.188496165388 0.995591210169 -.1)
(0.196098699567 0.995228187753 -.1)
(0.203701233745 0.994850778447 -.1)
(0.211303767923 0.994458978203 -.1)
(0.218906302101 0.994052782822 -.1)
(0.226508836279 0.993632187945 -.1)
(0.234111370457 0.993197189058 -.1)
(0.241713904635 0.992747781491 -.1)
(0.249316438813 0.992283960415 -.1)
(0.256918972991 0.991805720846 -.1)
(0.264521507169 0.991313057643 -.1)
(0.272124041347 0.990805965505 -.1)
(0.279726575525 0.990284438975 -.1)
(0.287329109703 0.989748472438 -.1)
(0.294931643881 0.989198060118 -.1)
(0.302534178059 0.988633196084 -.1)
(0.310136712237 0.988053874242 -.1)
(0.317739246415 0.987460088341 -.1)
(0.325341780594 0.986851831969 -.1)
(0.332944314772 0.986229098554 -.1)
(0.34054684895 0.985591881365 -.1)
(0.348149383128 0.984940173508 -.1)
(0.355751917306 0.984273967928 -.1)
(0.363354451484 0.983593257409 -.1)
(0.370956985662 0.982898034573 -.1)
(0.37855951984 0.982188291879 -.1)
(0.386162054018 0.981464021624 -.1)
(0.393764588196 0.980725215941 -.1)
(0.401367122374 0.979971866799 -.1)
(0.408969656552 0.979203966003 -.1)
(0.41657219073 0.978421505195 -.1)
(0.424174724908 0.977624475849 -.1)
(0.431777259086 0.976812869275 -.1)
(0.439379793264 0.975986676618 -.1)
(0.446982327442 0.975145888854 -.1)
(0.454584861621 0.974290496794 -.1)
(0.462187395799 0.973420491081 -.1)
(0.469789929977 0.972535862189 -.1)
(0.477392464155 0.971636600425 -.1)
(0.484994998333 0.970722695926 -.1)
(0.492597532511 0.969794138658 -.1)
(0.500200066689 0.96885091842 -.1)
(0.507802600867 0.967893024837 -.1)
(0.515405135045 0.966920447363 -.1)
(0.523007669223 0.965933175283 -.1)
(0.530610203401 0.964931197706 -.1)
(0.538212737579 0.96391450357 -.1)
(0.545815271757 0.962883081637 -.1)
(0.553417805935 0.961836920496 -.1)
(0.561020340113 0.960776008562 -.1)
(0.568622874291 0.959700334071 -.1)
(0.576225408469 0.958609885085 -.1)
(0.583827942648 0.957504649489 -.1)
(0.591430476826 0.956384614989 -.1)
(0.599033011004 0.955249769113 -.1)
(0.606635545182 0.954100099211 -.1)
(0.61423807936 0.952935592449 -.1)
(0.621840613538 0.951756235818 -.1)
(0.629443147716 0.950562016123 -.1)
(0.637045681894 0.949352919989 -.1)
(0.644648216072 0.948128933857 -.1)
(0.65225075025 0.946890043986 -.1)
(0.659853284428 0.945636236447 -.1)
(0.667455818606 0.94436749713 -.1)
(0.675058352784 0.943083811736 -.1)
(0.682660886962 0.941785165779 -.1)
(0.69026342114 0.940471544587 -.1)
(0.697865955318 0.939142933296 -.1)
(0.705468489496 0.937799316856 -.1)
(0.713071023675 0.936440680025 -.1)
(0.720673557853 0.935067007368 -.1)
(0.728276092031 0.93367828326 -.1)
(0.735878626209 0.932274491883 -.1)
(0.743481160387 0.930855617223 -.1)
(0.751083694565 0.929421643071 -.1)
(0.758686228743 0.927972553023 -.1)
(0.766288762921 0.926508330478 -.1)
(0.773891297099 0.925028958636 -.1)
(0.781493831277 0.923534420499 -.1)
(0.789096365455 0.922024698867 -.1)
(0.796698899633 0.920499776342 -.1)
(0.804301433811 0.91895963532 -.1)
(0.811903967989 0.917404257997 -.1)
(0.819506502167 0.915833626362 -.1)
(0.827109036345 0.914247722202 -.1)
(0.834711570524 0.912646527094 -.1)
(0.842314104702 0.911030022408 -.1)
(0.84991663888 0.909398189307 -.1)
(0.857519173058 0.907751008742 -.1)
(0.865121707236 0.906088461455 -.1)
(0.872724241414 0.904410527972 -.1)
(0.880326775592 0.90271718861 -.1)
(0.88792930977 0.901008423468 -.1)
(0.895531843948 0.89928421243 -.1)
(0.903134378126 0.897544535162 -.1)
(0.910736912304 0.895789371112 -.1)
(0.918339446482 0.894018699509 -.1)
(0.92594198066 0.892232499359 -.1)
(0.933544514838 0.890430749447 -.1)
(0.941147049016 0.888613428334 -.1)
(0.948749583194 0.886780514354 -.1)