/*--------------------------------*- C++ -*----------------------------------*\
| =========                 |                                                 |
| \\      /  F ield         | OpenFOAM: The Open Source CFD Toolbox           |
|  \\    /   O peration     | Version:  2.3.0                                 |
|   \\  /    A nd           | Web:      www.OpenFOAM.org                      |
|    \\/     M anipulation  |                                                 |
\*---------------------------------------------------------------------------*/
FoamFile
{
    version     2.0;
    format      ascii;
    class       dictionary;
    object      blockMeshDict;
}
// * * * * * * * * * * * * * * * * * * * * * * * * * * * * * * * * * * * * * //

convertToMeters 1;

vertices
(
        (0 -.1  1.0)//0
        (9 -.1  1.0)//1
        (9  .1  1.0)//2
        (0  .1  1.0)//3
        (0 -.1  2.0)//4
        (9 -.1  2.0)//5
        (9  .1  2.0)//6
        (0  .1  2.0)//7
        (0 -.1  3.035)//8
        (9 -.1  3.035)//9
        (9  .1  3.035)//10
        (0  .1  3.035)//11
);

blocks
(
        //hex (0 1 3 2 6 7 9 8) (40 25 30) simpleGrading (1 10.7028 1)
        hex (0 1 2 3 4 5 6 7)   (100 1 30) simpleGrading (1 1 10)
        hex (4 5 6 7 8 9 10 11) (100 1 30) simpleGrading (1 1 0.1)
);

/*
edges
(
      spline 0 1 ((0.25 -0.1 0.1))
      spline 3 2 ((0.75  0.1 0.1))
);
*/

//EDGES-START
/*edges
(
spline 0 1 (
(0.0 -.1 1.0)
(0.00900900900901 -.1 1.0)
(0.018018018018 -.1 1.0)
(0.027027027027 -.1 1.0)
(0.036036036036 -.1 1.0)
(0.045045045045 -.1 1.0)
(0.0540540540541 -.1 1.0)
(0.0630630630631 -.1 1.0)
(0.0720720720721 -.1 1.0)
(0.0810810810811 -.1 1.0)
(0.0900900900901 -.1 1.0)
(0.0990990990991 -.1 1.0)
(0.108108108108 -.1 1.0)
(0.117117117117 -.1 0.999926318545)
(0.126126126126 -.1 0.999675839701)
(0.135135135135 -.1 0.999353851027)
(0.144144144144 -.1 0.998953045159)
(0.153153153153 -.1 0.998466114731)
(0.162162162162 -.1 0.997885752378)
(0.171171171171 -.1 0.997204650737)
(0.18018018018 -.1 0.996415502442)
(0.189189189189 -.1 0.995511000128)
(0.198198198198 -.1 0.99448383643)
(0.207207207207 -.1 0.993326703984)
(0.216216216216 -.1 0.992032295425)
(0.225225225225 -.1 0.990593303388)
(0.234234234234 -.1 0.989002420508)
(0.243243243243 -.1 0.98725233942)
(0.252252252252 -.1 0.98533575276)
(0.261261261261 -.1 0.983245353162)
(0.27027027027 -.1 0.980973833263)
(0.279279279279 -.1 0.978513885696)
(0.288288288288 -.1 0.975858203098)
(0.297297297297 -.1 0.972999478103)
(0.306306306306 -.1 0.969930403346)
(0.315315315315 -.1 0.966643671464)
(0.324324324324 -.1 0.963132051511)
(0.333333333333 -.1 0.959393316811)
(0.342342342342 -.1 0.95543324833)
(0.351351351351 -.1 0.951258346061)
(0.36036036036 -.1 0.946875110001)
(0.369369369369 -.1 0.942290040143)
(0.378378378378 -.1 0.937509636482)
(0.387387387387 -.1 0.932540399013)
(0.396396396396 -.1 0.92738882773)
(0.405405405405 -.1 0.922061422629)
(0.414414414414 -.1 0.916564683703)
(0.423423423423 -.1 0.910905110947)
(0.432432432432 -.1 0.905089204356)
(0.441441441441 -.1 0.899123463925)
(0.45045045045 -.1 0.893014389649)
(0.459459459459 -.1 0.886768481521)
(0.468468468468 -.1 0.880392239536)
(0.477477477477 -.1 0.87389216369)
(0.486486486486 -.1 0.867274753976)
(0.495495495495 -.1 0.86054651039)
(0.504504504505 -.1 0.85371391406)
(0.513513513514 -.1 0.846783012194)
(0.522522522523 -.1 0.839759418081)
(0.531531531532 -.1 0.832648726145)
(0.540540540541 -.1 0.825456530806)
(0.54954954955 -.1 0.818188426489)
(0.558558558559 -.1 0.810850007615)
(0.567567567568 -.1 0.803446868607)
(0.576576576577 -.1 0.795984603888)
(0.585585585586 -.1 0.788468807879)
(0.594594594595 -.1 0.780905075005)
(0.603603603604 -.1 0.773298999686)
(0.612612612613 -.1 0.765656176347)
(0.621621621622 -.1 0.757982199408)
(0.630630630631 -.1 0.750282663294)
(0.63963963964 -.1 0.742563162426)
(0.648648648649 -.1 0.734829291228)
(0.657657657658 -.1 0.72708664412)
(0.666666666667 -.1 0.719340815527)
(0.675675675676 -.1 0.711597399871)
(0.684684684685 -.1 0.703861991574)
(0.693693693694 -.1 0.696140185059)
(0.702702702703 -.1 0.688437574749)
(0.711711711712 -.1 0.680759755065)
(0.720720720721 -.1 0.673111937382)
(0.72972972973 -.1 0.665495570003)
(0.738738738739 -.1 0.657909965352)
(0.747747747748 -.1 0.650354411339)
(0.756756756757 -.1 0.642828195871)
(0.765765765766 -.1 0.635330606858)
(0.774774774775 -.1 0.627860932208)
(0.783783783784 -.1 0.62041845983)
(0.792792792793 -.1 0.613002477633)
(0.801801801802 -.1 0.605612273526)
(0.810810810811 -.1 0.598247135417)
(0.81981981982 -.1 0.590906351215)
(0.828828828829 -.1 0.58358920883)
(0.837837837838 -.1 0.576294996169)
(0.846846846847 -.1 0.569023001141)
(0.855855855856 -.1 0.561772511656)
(0.864864864865 -.1 0.554542815622)
(0.873873873874 -.1 0.547333200948)
(0.882882882883 -.1 0.540142955543)
(0.891891891892 -.1 0.532971367315)
(0.900900900901 -.1 0.525817724173)
(0.90990990991 -.1 0.518681314026)
(0.918918918919 -.1 0.511561424783)
(0.927927927928 -.1 0.504457344353)
(0.936936936937 -.1 0.497368360644)
(0.945945945946 -.1 0.490293761565)
(0.954954954955 -.1 0.483232835025)
(0.963963963964 -.1 0.476184868933)
(0.972972972973 -.1 0.469149151197)
(0.981981981982 -.1 0.462124969727)
(0.990990990991 -.1 0.45511161243)
(1.0 -.1 0.448108367217)
(1.00900900901 -.1 0.441114521995)
(1.01801801802 -.1 0.434129364673)
(1.02702702703 -.1 0.427152183161)
(1.03603603604 -.1 0.420182265366)
(1.04504504505 -.1 0.413218899198)
(1.05405405405 -.1 0.406261372566)
(1.06306306306 -.1 0.399308973378)
(1.07207207207 -.1 0.392360989718)
(1.08108108108 -.1 0.385417297573)
(1.09009009009 -.1 0.378479673026)
(1.0990990991 -.1 0.371550275318)
(1.10810810811 -.1 0.36463126369)
(1.11711711712 -.1 0.357724797384)
(1.12612612613 -.1 0.35083303564)
(1.13513513514 -.1 0.343958137699)
(1.14414414414 -.1 0.337102262803)
(1.15315315315 -.1 0.330267570193)
(1.16216216216 -.1 0.323456219109)
(1.17117117117 -.1 0.316670368792)
(1.18018018018 -.1 0.309912178485)
(1.18918918919 -.1 0.303183807427)
(1.1981981982 -.1 0.296487414861)
(1.20720720721 -.1 0.289825160026)
(1.21621621622 -.1 0.283199202164)
(1.22522522523 -.1 0.276611700517)
(1.23423423423 -.1 0.270064814325)
(1.24324324324 -.1 0.263560702829)
(1.25225225225 -.1 0.25710152527)
(1.26126126126 -.1 0.250689440889)
(1.27027027027 -.1 0.244326608929)
(1.27927927928 -.1 0.238015188628)
(1.28828828829 -.1 0.231757339229)
(1.2972972973 -.1 0.225555219973)
(1.30630630631 -.1 0.219410990101)
(1.31531531532 -.1 0.213326808854)
(1.32432432432 -.1 0.207304835472)
(1.33333333333 -.1 0.201347229197)
(1.34234234234 -.1 0.195456149271)
(1.35135135135 -.1 0.189633754933)
(1.36036036036 -.1 0.183882205426)
(1.36936936937 -.1 0.178203659989)
(1.37837837838 -.1 0.172600277865)
(1.38738738739 -.1 0.167074218295)
(1.3963963964 -.1 0.161627640519)
(1.40540540541 -.1 0.156262703778)
(1.41441441441 -.1 0.150981567314)
(1.42342342342 -.1 0.145786390368)
(1.43243243243 -.1 0.140679305058)
(1.44144144144 -.1 0.135661547504)
(1.45045045045 -.1 0.130733273999)
(1.45945945946 -.1 0.125894576548)
(1.46846846847 -.1 0.121145547159)
(1.47747747748 -.1 0.116486277838)
(1.48648648649 -.1 0.111916860591)
(1.4954954955 -.1 0.107437387425)
(1.5045045045 -.1 0.103047950346)
(1.51351351351 -.1 0.0987486413614)
(1.52252252252 -.1 0.0945395524765)
(1.53153153153 -.1 0.0904207756982)
(1.54054054054 -.1 0.086392403033)
(1.54954954955 -.1 0.0824545264873)
(1.55855855856 -.1 0.0786072380676)
(1.56756756757 -.1 0.0748506297803)
(1.57657657658 -.1 0.0711847936319)
(1.58558558559 -.1 0.0676098216288)
(1.59459459459 -.1 0.0641258057775)
(1.6036036036 -.1 0.0607328380844)
(1.61261261261 -.1 0.057431010556)
(1.62162162162 -.1 0.0542204151988)
(1.63063063063 -.1 0.0511011440192)
(1.63963963964 -.1 0.0480732890236)
(1.64864864865 -.1 0.0451369422185)
(1.65765765766 -.1 0.0422921956104)
(1.66666666667 -.1 0.0395391412057)
(1.67567567568 -.1 0.0368778710109)
(1.68468468468 -.1 0.0343084770324)
(1.69369369369 -.1 0.0318310512766)
(1.7027027027 -.1 0.0294456857501)
(1.71171171171 -.1 0.0271524724593)
(1.72072072072 -.1 0.0249515034105)
(1.72972972973 -.1 0.0228428706104)
(1.73873873874 -.1 0.0208266660653)
(1.74774774775 -.1 0.0189029817817)
(1.75675675676 -.1 0.017071909766)
(1.76576576577 -.1 0.0153335420248)
(1.77477477477 -.1 0.0136879705644)
(1.78378378378 -.1 0.0121352873913)
(1.79279279279 -.1 0.0106755845119)
(1.8018018018 -.1 0.00930895393278)
(1.81081081081 -.1 0.00803548766031)
(1.81981981982 -.1 0.00685527770095)
(1.82882882883 -.1 0.00576841606116)
(1.83783783784 -.1 0.0047749947474)
(1.84684684685 -.1 0.00387510576611)
(1.85585585586 -.1 0.00306884112375)
(1.86486486486 -.1 0.00235629282678)
(1.87387387387 -.1 0.00173755288165)
(1.88288288288 -.1 0.0012127132948)
(1.89189189189 -.1 0.000781866072696)
(1.9009009009 -.1 0.000445103221791)
(1.90990990991 -.1 0.000202516748535)
(1.91891891892 -.1 5.41986593816e-05)
(1.92792792793 -.1 2.4096078561e-07)
(1.93693693694 -.1 0.0)
(1.94594594595 -.1 0.0)
(1.95495495495 -.1 0.0)
(1.96396396396 -.1 0.0)
(1.97297297297 -.1 0.0)
(1.98198198198 -.1 0.0)
(1.99099099099 -.1 0.0)
(2.0 -.1 0.0)
(2.00900900901 -.1 0.0)
(2.01801801802 -.1 0.0)
(2.02702702703 -.1 0.0)
(2.03603603604 -.1 0.0)
(2.04504504505 -.1 0.0)
(2.05405405405 -.1 0.0)
(2.06306306306 -.1 0.0)
(2.07207207207 -.1 0.0)
(2.08108108108 -.1 0.0)
(2.09009009009 -.1 0.0)
(2.0990990991 -.1 0.0)
(2.10810810811 -.1 0.0)
(2.11711711712 -.1 0.0)
(2.12612612613 -.1 0.0)
(2.13513513514 -.1 0.0)
(2.14414414414 -.1 0.0)
(2.15315315315 -.1 0.0)
(2.16216216216 -.1 0.0)
(2.17117117117 -.1 0.0)
(2.18018018018 -.1 0.0)
(2.18918918919 -.1 0.0)
(2.1981981982 -.1 0.0)
(2.20720720721 -.1 0.0)
(2.21621621622 -.1 0.0)
(2.22522522523 -.1 0.0)
(2.23423423423 -.1 0.0)
(2.24324324324 -.1 0.0)
(2.25225225225 -.1 0.0)
(2.26126126126 -.1 0.0)
(2.27027027027 -.1 0.0)
(2.27927927928 -.1 0.0)
(2.28828828829 -.1 0.0)
(2.2972972973 -.1 0.0)
(2.30630630631 -.1 0.0)
(2.31531531532 -.1 0.0)
(2.32432432432 -.1 0.0)
(2.33333333333 -.1 0.0)
(2.34234234234 -.1 0.0)
(2.35135135135 -.1 0.0)
(2.36036036036 -.1 0.0)
(2.36936936937 -.1 0.0)
(2.37837837838 -.1 0.0)
(2.38738738739 -.1 0.0)
(2.3963963964 -.1 0.0)
(2.40540540541 -.1 0.0)
(2.41441441441 -.1 0.0)
(2.42342342342 -.1 0.0)
(2.43243243243 -.1 0.0)
(2.44144144144 -.1 0.0)
(2.45045045045 -.1 0.0)
(2.45945945946 -.1 0.0)
(2.46846846847 -.1 0.0)
(2.47747747748 -.1 0.0)
(2.48648648649 -.1 0.0)
(2.4954954955 -.1 0.0)
(2.5045045045 -.1 0.0)
(2.51351351351 -.1 0.0)
(2.52252252252 -.1 0.0)
(2.53153153153 -.1 0.0)
(2.54054054054 -.1 0.0)
(2.54954954955 -.1 0.0)
(2.55855855856 -.1 0.0)
(2.56756756757 -.1 0.0)
(2.57657657658 -.1 0.0)
(2.58558558559 -.1 0.0)
(2.59459459459 -.1 0.0)
(2.6036036036 -.1 0.0)
(2.61261261261 -.1 0.0)
(2.62162162162 -.1 0.0)
(2.63063063063 -.1 0.0)
(2.63963963964 -.1 0.0)
(2.64864864865 -.1 0.0)
(2.65765765766 -.1 0.0)
(2.66666666667 -.1 0.0)
(2.67567567568 -.1 0.0)
(2.68468468468 -.1 0.0)
(2.69369369369 -.1 0.0)
(2.7027027027 -.1 0.0)
(2.71171171171 -.1 0.0)
(2.72072072072 -.1 0.0)
(2.72972972973 -.1 0.0)
(2.73873873874 -.1 0.0)
(2.74774774775 -.1 0.0)
(2.75675675676 -.1 0.0)
(2.76576576577 -.1 0.0)
(2.77477477477 -.1 0.0)
(2.78378378378 -.1 0.0)
(2.79279279279 -.1 0.0)
(2.8018018018 -.1 0.0)
(2.81081081081 -.1 0.0)
(2.81981981982 -.1 0.0)
(2.82882882883 -.1 0.0)
(2.83783783784 -.1 0.0)
(2.84684684685 -.1 0.0)
(2.85585585586 -.1 0.0)
(2.86486486486 -.1 0.0)
(2.87387387387 -.1 0.0)
(2.88288288288 -.1 0.0)
(2.89189189189 -.1 0.0)
(2.9009009009 -.1 0.0)
(2.90990990991 -.1 0.0)
(2.91891891892 -.1 0.0)
(2.92792792793 -.1 0.0)
(2.93693693694 -.1 0.0)
(2.94594594595 -.1 0.0)
(2.95495495495 -.1 0.0)
(2.96396396396 -.1 0.0)
(2.97297297297 -.1 0.0)
(2.98198198198 -.1 0.0)
(2.99099099099 -.1 0.0)
(3.0 -.1 0.0)
(3.00900900901 -.1 0.0)
(3.01801801802 -.1 0.0)
(3.02702702703 -.1 0.0)
(3.03603603604 -.1 0.0)
(3.04504504505 -.1 0.0)
(3.05405405405 -.1 0.0)
(3.06306306306 -.1 0.0)
(3.07207207207 -.1 0.0)
(3.08108108108 -.1 0.0)
(3.09009009009 -.1 0.0)
(3.0990990991 -.1 0.0)
(3.10810810811 -.1 0.0)
(3.11711711712 -.1 0.0)
(3.12612612613 -.1 0.0)
(3.13513513514 -.1 0.0)
(3.14414414414 -.1 0.0)
(3.15315315315 -.1 0.0)
(3.16216216216 -.1 0.0)
(3.17117117117 -.1 0.0)
(3.18018018018 -.1 0.0)
(3.18918918919 -.1 0.0)
(3.1981981982 -.1 0.0)
(3.20720720721 -.1 0.0)
(3.21621621622 -.1 0.0)
(3.22522522523 -.1 0.0)
(3.23423423423 -.1 0.0)
(3.24324324324 -.1 0.0)
(3.25225225225 -.1 0.0)
(3.26126126126 -.1 0.0)
(3.27027027027 -.1 0.0)
(3.27927927928 -.1 0.0)
(3.28828828829 -.1 0.0)
(3.2972972973 -.1 0.0)
(3.30630630631 -.1 0.0)
(3.31531531532 -.1 0.0)
(3.32432432432 -.1 0.0)
(3.33333333333 -.1 0.0)
(3.34234234234 -.1 0.0)
(3.35135135135 -.1 0.0)
(3.36036036036 -.1 0.0)
(3.36936936937 -.1 0.0)
(3.37837837838 -.1 0.0)
(3.38738738739 -.1 0.0)
(3.3963963964 -.1 0.0)
(3.40540540541 -.1 0.0)
(3.41441441441 -.1 0.0)
(3.42342342342 -.1 0.0)
(3.43243243243 -.1 0.0)
(3.44144144144 -.1 0.0)
(3.45045045045 -.1 0.0)
(3.45945945946 -.1 0.0)
(3.46846846847 -.1 0.0)
(3.47747747748 -.1 0.0)
(3.48648648649 -.1 0.0)
(3.4954954955 -.1 0.0)
(3.5045045045 -.1 0.0)
(3.51351351351 -.1 0.0)
(3.52252252252 -.1 0.0)
(3.53153153153 -.1 0.0)
(3.54054054054 -.1 0.0)
(3.54954954955 -.1 0.0)
(3.55855855856 -.1 0.0)
(3.56756756757 -.1 0.0)
(3.57657657658 -.1 0.0)
(3.58558558559 -.1 0.0)
(3.59459459459 -.1 0.0)
(3.6036036036 -.1 0.0)
(3.61261261261 -.1 0.0)
(3.62162162162 -.1 0.0)
(3.63063063063 -.1 0.0)
(3.63963963964 -.1 0.0)
(3.64864864865 -.1 0.0)
(3.65765765766 -.1 0.0)
(3.66666666667 -.1 0.0)
(3.67567567568 -.1 0.0)
(3.68468468468 -.1 0.0)
(3.69369369369 -.1 0.0)
(3.7027027027 -.1 0.0)
(3.71171171171 -.1 0.0)
(3.72072072072 -.1 0.0)
(3.72972972973 -.1 0.0)
(3.73873873874 -.1 0.0)
(3.74774774775 -.1 0.0)
(3.75675675676 -.1 0.0)
(3.76576576577 -.1 0.0)
(3.77477477477 -.1 0.0)
(3.78378378378 -.1 0.0)
(3.79279279279 -.1 0.0)
(3.8018018018 -.1 0.0)
(3.81081081081 -.1 0.0)
(3.81981981982 -.1 0.0)
(3.82882882883 -.1 0.0)
(3.83783783784 -.1 0.0)
(3.84684684685 -.1 0.0)
(3.85585585586 -.1 0.0)
(3.86486486486 -.1 0.0)
(3.87387387387 -.1 0.0)
(3.88288288288 -.1 0.0)
(3.89189189189 -.1 0.0)
(3.9009009009 -.1 0.0)
(3.90990990991 -.1 0.0)
(3.91891891892 -.1 0.0)
(3.92792792793 -.1 0.0)
(3.93693693694 -.1 0.0)
(3.94594594595 -.1 0.0)
(3.95495495495 -.1 0.0)
(3.96396396396 -.1 0.0)
(3.97297297297 -.1 0.0)
(3.98198198198 -.1 0.0)
(3.99099099099 -.1 0.0)
(4.0 -.1 0.0)
(4.00900900901 -.1 0.0)
(4.01801801802 -.1 0.0)
(4.02702702703 -.1 0.0)
(4.03603603604 -.1 0.0)
(4.04504504505 -.1 0.0)
(4.05405405405 -.1 0.0)
(4.06306306306 -.1 0.0)
(4.07207207207 -.1 0.0)
(4.08108108108 -.1 0.0)
(4.09009009009 -.1 0.0)
(4.0990990991 -.1 0.0)
(4.10810810811 -.1 0.0)
(4.11711711712 -.1 0.0)
(4.12612612613 -.1 0.0)
(4.13513513514 -.1 0.0)
(4.14414414414 -.1 0.0)
(4.15315315315 -.1 0.0)
(4.16216216216 -.1 0.0)
(4.17117117117 -.1 0.0)
(4.18018018018 -.1 0.0)
(4.18918918919 -.1 0.0)
(4.1981981982 -.1 0.0)
(4.20720720721 -.1 0.0)
(4.21621621622 -.1 0.0)
(4.22522522523 -.1 0.0)
(4.23423423423 -.1 0.0)
(4.24324324324 -.1 0.0)
(4.25225225225 -.1 0.0)
(4.26126126126 -.1 0.0)
(4.27027027027 -.1 0.0)
(4.27927927928 -.1 0.0)
(4.28828828829 -.1 0.0)
(4.2972972973 -.1 0.0)
(4.30630630631 -.1 0.0)
(4.31531531532 -.1 0.0)
(4.32432432432 -.1 0.0)
(4.33333333333 -.1 0.0)
(4.34234234234 -.1 0.0)
(4.35135135135 -.1 0.0)
(4.36036036036 -.1 0.0)
(4.36936936937 -.1 0.0)
(4.37837837838 -.1 0.0)
(4.38738738739 -.1 0.0)
(4.3963963964 -.1 0.0)
(4.40540540541 -.1 0.0)
(4.41441441441 -.1 0.0)
(4.42342342342 -.1 0.0)
(4.43243243243 -.1 0.0)
(4.44144144144 -.1 0.0)
(4.45045045045 -.1 0.0)
(4.45945945946 -.1 0.0)
(4.46846846847 -.1 0.0)
(4.47747747748 -.1 0.0)
(4.48648648649 -.1 0.0)
(4.4954954955 -.1 0.0)
(4.5045045045 -.1 0.0)
(4.51351351351 -.1 0.0)
(4.52252252252 -.1 0.0)
(4.53153153153 -.1 0.0)
(4.54054054054 -.1 0.0)
(4.54954954955 -.1 0.0)
(4.55855855856 -.1 0.0)
(4.56756756757 -.1 0.0)
(4.57657657658 -.1 0.0)
(4.58558558559 -.1 0.0)
(4.59459459459 -.1 0.0)
(4.6036036036 -.1 0.0)
(4.61261261261 -.1 0.0)
(4.62162162162 -.1 0.0)
(4.63063063063 -.1 0.0)
(4.63963963964 -.1 0.0)
(4.64864864865 -.1 0.0)
(4.65765765766 -.1 0.0)
(4.66666666667 -.1 0.0)
(4.67567567568 -.1 0.0)
(4.68468468468 -.1 0.0)
(4.69369369369 -.1 0.0)
(4.7027027027 -.1 0.0)
(4.71171171171 -.1 0.0)
(4.72072072072 -.1 0.0)
(4.72972972973 -.1 0.0)
(4.73873873874 -.1 0.0)
(4.74774774775 -.1 0.0)
(4.75675675676 -.1 0.0)
(4.76576576577 -.1 0.0)
(4.77477477477 -.1 0.0)
(4.78378378378 -.1 0.0)
(4.79279279279 -.1 0.0)
(4.8018018018 -.1 0.0)
(4.81081081081 -.1 0.0)
(4.81981981982 -.1 0.0)
(4.82882882883 -.1 0.0)
(4.83783783784 -.1 0.0)
(4.84684684685 -.1 0.0)
(4.85585585586 -.1 0.0)
(4.86486486486 -.1 0.0)
(4.87387387387 -.1 0.0)
(4.88288288288 -.1 0.0)
(4.89189189189 -.1 0.0)
(4.9009009009 -.1 0.0)
(4.90990990991 -.1 0.0)
(4.91891891892 -.1 0.0)
(4.92792792793 -.1 0.0)
(4.93693693694 -.1 0.0)
(4.94594594595 -.1 0.0)
(4.95495495495 -.1 0.0)
(4.96396396396 -.1 0.0)
(4.97297297297 -.1 0.0)
(4.98198198198 -.1 0.0)
(4.99099099099 -.1 0.0)
(5.0 -.1 0.0)
(5.00900900901 -.1 0.0)
(5.01801801802 -.1 0.0)
(5.02702702703 -.1 0.0)
(5.03603603604 -.1 0.0)
(5.04504504505 -.1 0.0)
(5.05405405405 -.1 0.0)
(5.06306306306 -.1 0.0)
(5.07207207207 -.1 0.0)
(5.08108108108 -.1 0.0)
(5.09009009009 -.1 0.0)
(5.0990990991 -.1 0.0)
(5.10810810811 -.1 0.0)
(5.11711711712 -.1 0.0)
(5.12612612613 -.1 0.0)
(5.13513513514 -.1 0.0)
(5.14414414414 -.1 0.0)
(5.15315315315 -.1 0.0)
(5.16216216216 -.1 0.0)
(5.17117117117 -.1 0.0)
(5.18018018018 -.1 0.0)
(5.18918918919 -.1 0.0)
(5.1981981982 -.1 0.0)
(5.20720720721 -.1 0.0)
(5.21621621622 -.1 0.0)
(5.22522522523 -.1 0.0)
(5.23423423423 -.1 0.0)
(5.24324324324 -.1 0.0)
(5.25225225225 -.1 0.0)
(5.26126126126 -.1 0.0)
(5.27027027027 -.1 0.0)
(5.27927927928 -.1 0.0)
(5.28828828829 -.1 0.0)
(5.2972972973 -.1 0.0)
(5.30630630631 -.1 0.0)
(5.31531531532 -.1 0.0)
(5.32432432432 -.1 0.0)
(5.33333333333 -.1 0.0)
(5.34234234234 -.1 0.0)
(5.35135135135 -.1 0.0)
(5.36036036036 -.1 0.0)
(5.36936936937 -.1 0.0)
(5.37837837838 -.1 0.0)
(5.38738738739 -.1 0.0)
(5.3963963964 -.1 0.0)
(5.40540540541 -.1 0.0)
(5.41441441441 -.1 0.0)
(5.42342342342 -.1 0.0)
(5.43243243243 -.1 0.0)
(5.44144144144 -.1 0.0)
(5.45045045045 -.1 0.0)
(5.45945945946 -.1 0.0)
(5.46846846847 -.1 0.0)
(5.47747747748 -.1 0.0)
(5.48648648649 -.1 0.0)
(5.4954954955 -.1 0.0)
(5.5045045045 -.1 0.0)
(5.51351351351 -.1 0.0)
(5.52252252252 -.1 0.0)
(5.53153153153 -.1 0.0)
(5.54054054054 -.1 0.0)
(5.54954954955 -.1 0.0)
(5.55855855856 -.1 0.0)
(5.56756756757 -.1 0.0)
(5.57657657658 -.1 0.0)
(5.58558558559 -.1 0.0)
(5.59459459459 -.1 0.0)
(5.6036036036 -.1 0.0)
(5.61261261261 -.1 0.0)
(5.62162162162 -.1 0.0)
(5.63063063063 -.1 0.0)
(5.63963963964 -.1 0.0)
(5.64864864865 -.1 0.0)
(5.65765765766 -.1 0.0)
(5.66666666667 -.1 0.0)
(5.67567567568 -.1 0.0)
(5.68468468468 -.1 0.0)
(5.69369369369 -.1 0.0)
(5.7027027027 -.1 0.0)
(5.71171171171 -.1 0.0)
(5.72072072072 -.1 0.0)
(5.72972972973 -.1 0.0)
(5.73873873874 -.1 0.0)
(5.74774774775 -.1 0.0)
(5.75675675676 -.1 0.0)
(5.76576576577 -.1 0.0)
(5.77477477477 -.1 0.0)
(5.78378378378 -.1 0.0)
(5.79279279279 -.1 0.0)
(5.8018018018 -.1 0.0)
(5.81081081081 -.1 0.0)
(5.81981981982 -.1 0.0)
(5.82882882883 -.1 0.0)
(5.83783783784 -.1 0.0)
(5.84684684685 -.1 0.0)
(5.85585585586 -.1 0.0)
(5.86486486486 -.1 0.0)
(5.87387387387 -.1 0.0)
(5.88288288288 -.1 0.0)
(5.89189189189 -.1 0.0)
(5.9009009009 -.1 0.0)
(5.90990990991 -.1 0.0)
(5.91891891892 -.1 0.0)
(5.92792792793 -.1 0.0)
(5.93693693694 -.1 0.0)
(5.94594594595 -.1 0.0)
(5.95495495495 -.1 0.0)
(5.96396396396 -.1 0.0)
(5.97297297297 -.1 0.0)
(5.98198198198 -.1 0.0)
(5.99099099099 -.1 0.0)
(6.0 -.1 0.0)
(6.00900900901 -.1 0.0)
(6.01801801802 -.1 0.0)
(6.02702702703 -.1 0.0)
(6.03603603604 -.1 0.0)
(6.04504504505 -.1 0.0)
(6.05405405405 -.1 0.0)
(6.06306306306 -.1 0.0)
(6.07207207207 -.1 0.0)
(6.08108108108 -.1 0.0)
(6.09009009009 -.1 0.0)
(6.0990990991 -.1 0.0)
(6.10810810811 -.1 0.0)
(6.11711711712 -.1 0.0)
(6.12612612613 -.1 0.0)
(6.13513513514 -.1 0.0)
(6.14414414414 -.1 0.0)
(6.15315315315 -.1 0.0)
(6.16216216216 -.1 0.0)
(6.17117117117 -.1 0.0)
(6.18018018018 -.1 0.0)
(6.18918918919 -.1 0.0)
(6.1981981982 -.1 0.0)
(6.20720720721 -.1 0.0)
(6.21621621622 -.1 0.0)
(6.22522522523 -.1 0.0)
(6.23423423423 -.1 0.0)
(6.24324324324 -.1 0.0)
(6.25225225225 -.1 0.0)
(6.26126126126 -.1 0.0)
(6.27027027027 -.1 0.0)
(6.27927927928 -.1 0.0)
(6.28828828829 -.1 0.0)
(6.2972972973 -.1 0.0)
(6.30630630631 -.1 0.0)
(6.31531531532 -.1 0.0)
(6.32432432432 -.1 0.0)
(6.33333333333 -.1 0.0)
(6.34234234234 -.1 0.0)
(6.35135135135 -.1 0.0)
(6.36036036036 -.1 0.0)
(6.36936936937 -.1 0.0)
(6.37837837838 -.1 0.0)
(6.38738738739 -.1 0.0)
(6.3963963964 -.1 0.0)
(6.40540540541 -.1 0.0)
(6.41441441441 -.1 0.0)
(6.42342342342 -.1 0.0)
(6.43243243243 -.1 0.0)
(6.44144144144 -.1 0.0)
(6.45045045045 -.1 0.0)
(6.45945945946 -.1 0.0)
(6.46846846847 -.1 0.0)
(6.47747747748 -.1 0.0)
(6.48648648649 -.1 0.0)
(6.4954954955 -.1 0.0)
(6.5045045045 -.1 0.0)
(6.51351351351 -.1 0.0)
(6.52252252252 -.1 0.0)
(6.53153153153 -.1 0.0)
(6.54054054054 -.1 0.0)
(6.54954954955 -.1 0.0)
(6.55855855856 -.1 0.0)
(6.56756756757 -.1 0.0)
(6.57657657658 -.1 0.0)
(6.58558558559 -.1 0.0)
(6.59459459459 -.1 0.0)
(6.6036036036 -.1 0.0)
(6.61261261261 -.1 0.0)
(6.62162162162 -.1 0.0)
(6.63063063063 -.1 0.0)
(6.63963963964 -.1 0.0)
(6.64864864865 -.1 0.0)
(6.65765765766 -.1 0.0)
(6.66666666667 -.1 0.0)
(6.67567567568 -.1 0.0)
(6.68468468468 -.1 0.0)
(6.69369369369 -.1 0.0)
(6.7027027027 -.1 0.0)
(6.71171171171 -.1 0.0)
(6.72072072072 -.1 0.0)
(6.72972972973 -.1 0.0)
(6.73873873874 -.1 0.0)
(6.74774774775 -.1 0.0)
(6.75675675676 -.1 0.0)
(6.76576576577 -.1 0.0)
(6.77477477477 -.1 0.0)
(6.78378378378 -.1 0.0)
(6.79279279279 -.1 0.0)
(6.8018018018 -.1 0.0)
(6.81081081081 -.1 0.0)
(6.81981981982 -.1 0.0)
(6.82882882883 -.1 0.0)
(6.83783783784 -.1 0.0)
(6.84684684685 -.1 0.0)
(6.85585585586 -.1 0.0)
(6.86486486486 -.1 0.0)
(6.87387387387 -.1 0.0)
(6.88288288288 -.1 0.0)
(6.89189189189 -.1 0.0)
(6.9009009009 -.1 0.0)
(6.90990990991 -.1 0.0)
(6.91891891892 -.1 0.0)
(6.92792792793 -.1 0.0)
(6.93693693694 -.1 0.0)
(6.94594594595 -.1 0.0)
(6.95495495495 -.1 0.0)
(6.96396396396 -.1 0.0)
(6.97297297297 -.1 0.0)
(6.98198198198 -.1 0.0)
(6.99099099099 -.1 0.0)
(7.0 -.1 0.0)
(7.00900900901 -.1 0.0)
(7.01801801802 -.1 0.0)
(7.02702702703 -.1 0.0)
(7.03603603604 -.1 0.0)
(7.04504504505 -.1 0.0)
(7.05405405405 -.1 0.0)
(7.06306306306 -.1 0.0)
(7.07207207207 -.1 2.4096078561e-07)
(7.08108108108 -.1 5.41986593816e-05)
(7.09009009009 -.1 0.000202516748535)
(7.0990990991 -.1 0.000445103221791)
(7.10810810811 -.1 0.000781866072696)
(7.11711711712 -.1 0.0012127132948)
(7.12612612613 -.1 0.00173755288165)
(7.13513513514 -.1 0.00235629282678)
(7.14414414414 -.1 0.00306884112375)
(7.15315315315 -.1 0.00387510576611)
(7.16216216216 -.1 0.0047749947474)
(7.17117117117 -.1 0.00576841606116)
(7.18018018018 -.1 0.00685527770095)
(7.18918918919 -.1 0.00803548766031)
(7.1981981982 -.1 0.00930895393278)
(7.20720720721 -.1 0.0106755845119)
(7.21621621622 -.1 0.0121352873913)
(7.22522522523 -.1 0.0136879705644)
(7.23423423423 -.1 0.0153335420248)
(7.24324324324 -.1 0.017071909766)
(7.25225225225 -.1 0.0189029817817)
(7.26126126126 -.1 0.0208266660653)
(7.27027027027 -.1 0.0228428706104)
(7.27927927928 -.1 0.0249515034105)
(7.28828828829 -.1 0.0271524724593)
(7.2972972973 -.1 0.0294456857501)
(7.30630630631 -.1 0.0318310512766)
(7.31531531532 -.1 0.0343084770324)
(7.32432432432 -.1 0.0368778710109)
(7.33333333333 -.1 0.0395391412057)
(7.34234234234 -.1 0.0422921956104)
(7.35135135135 -.1 0.0451369422185)
(7.36036036036 -.1 0.0480732890236)
(7.36936936937 -.1 0.0511011440192)
(7.37837837838 -.1 0.0542204151988)
(7.38738738739 -.1 0.057431010556)
(7.3963963964 -.1 0.0607328380844)
(7.40540540541 -.1 0.0641258057775)
(7.41441441441 -.1 0.0676098216288)
(7.42342342342 -.1 0.0711847936319)
(7.43243243243 -.1 0.0748506297803)
(7.44144144144 -.1 0.0786072380676)
(7.45045045045 -.1 0.0824545264873)
(7.45945945946 -.1 0.086392403033)
(7.46846846847 -.1 0.0904207756982)
(7.47747747748 -.1 0.0945395524765)
(7.48648648649 -.1 0.0987486413614)
(7.4954954955 -.1 0.103047950346)
(7.5045045045 -.1 0.107437387425)
(7.51351351351 -.1 0.111916860591)
(7.52252252252 -.1 0.116486277838)
(7.53153153153 -.1 0.121145547159)
(7.54054054054 -.1 0.125894576548)
(7.54954954955 -.1 0.130733273999)
(7.55855855856 -.1 0.135661547504)
(7.56756756757 -.1 0.140679305058)
(7.57657657658 -.1 0.145786390368)
(7.58558558559 -.1 0.150981567314)
(7.59459459459 -.1 0.156262703778)
(7.6036036036 -.1 0.161627640519)
(7.61261261261 -.1 0.167074218295)
(7.62162162162 -.1 0.172600277865)
(7.63063063063 -.1 0.178203659989)
(7.63963963964 -.1 0.183882205426)
(7.64864864865 -.1 0.189633754933)
(7.65765765766 -.1 0.195456149271)
(7.66666666667 -.1 0.201347229197)
(7.67567567568 -.1 0.207304835472)
(7.68468468468 -.1 0.213326808854)
(7.69369369369 -.1 0.219410990101)
(7.7027027027 -.1 0.225555219973)
(7.71171171171 -.1 0.231757339229)
(7.72072072072 -.1 0.238015188628)
(7.72972972973 -.1 0.244326608929)
(7.73873873874 -.1 0.250689440889)
(7.74774774775 -.1 0.25710152527)
(7.75675675676 -.1 0.263560702829)
(7.76576576577 -.1 0.270064814325)
(7.77477477477 -.1 0.276611700517)
(7.78378378378 -.1 0.283199202164)
(7.79279279279 -.1 0.289825160026)
(7.8018018018 -.1 0.296487414861)
(7.81081081081 -.1 0.303183807427)
(7.81981981982 -.1 0.309912178485)
(7.82882882883 -.1 0.316670368792)
(7.83783783784 -.1 0.323456219109)
(7.84684684685 -.1 0.330267570193)
(7.85585585586 -.1 0.337102262803)
(7.86486486486 -.1 0.343958137699)
(7.87387387387 -.1 0.35083303564)
(7.88288288288 -.1 0.357724797384)
(7.89189189189 -.1 0.36463126369)
(7.9009009009 -.1 0.371550275318)
(7.90990990991 -.1 0.378479673026)
(7.91891891892 -.1 0.385417297573)
(7.92792792793 -.1 0.392360989718)
(7.93693693694 -.1 0.399308973378)
(7.94594594595 -.1 0.406261372566)
(7.95495495495 -.1 0.413218899198)
(7.96396396396 -.1 0.420182265366)
(7.97297297297 -.1 0.427152183161)
(7.98198198198 -.1 0.434129364673)
(7.99099099099 -.1 0.441114521995)
(8.0 -.1 0.448108367217)
(8.00900900901 -.1 0.45511161243)
(8.01801801802 -.1 0.462124969727)
(8.02702702703 -.1 0.469149151197)
(8.03603603604 -.1 0.476184868933)
(8.04504504505 -.1 0.483232835025)
(8.05405405405 -.1 0.490293761565)
(8.06306306306 -.1 0.497368360644)
(8.07207207207 -.1 0.504457344353)
(8.08108108108 -.1 0.511561424783)
(8.09009009009 -.1 0.518681314026)
(8.0990990991 -.1 0.525817724173)
(8.10810810811 -.1 0.532971367315)
(8.11711711712 -.1 0.540142955543)
(8.12612612613 -.1 0.547333200948)
(8.13513513514 -.1 0.554542815622)
(8.14414414414 -.1 0.561772511656)
(8.15315315315 -.1 0.569023001141)
(8.16216216216 -.1 0.576294996169)
(8.17117117117 -.1 0.58358920883)
(8.18018018018 -.1 0.590906351215)
(8.18918918919 -.1 0.598247135417)
(8.1981981982 -.1 0.605612273526)
(8.20720720721 -.1 0.613002477633)
(8.21621621622 -.1 0.62041845983)
(8.22522522523 -.1 0.627860932208)
(8.23423423423 -.1 0.635330606858)
(8.24324324324 -.1 0.642828195871)
(8.25225225225 -.1 0.650354411339)
(8.26126126126 -.1 0.657909965352)
(8.27027027027 -.1 0.665495570003)
(8.27927927928 -.1 0.673111937382)
(8.28828828829 -.1 0.680759755065)
(8.2972972973 -.1 0.688437574749)
(8.30630630631 -.1 0.696140185059)
(8.31531531532 -.1 0.703861991574)
(8.32432432432 -.1 0.711597399871)
(8.33333333333 -.1 0.719340815527)
(8.34234234234 -.1 0.72708664412)
(8.35135135135 -.1 0.734829291228)
(8.36036036036 -.1 0.742563162426)
(8.36936936937 -.1 0.750282663294)
(8.37837837838 -.1 0.757982199408)
(8.38738738739 -.1 0.765656176347)
(8.3963963964 -.1 0.773298999686)
(8.40540540541 -.1 0.780905075005)
(8.41441441441 -.1 0.788468807879)
(8.42342342342 -.1 0.795984603888)
(8.43243243243 -.1 0.803446868607)
(8.44144144144 -.1 0.810850007615)
(8.45045045045 -.1 0.818188426489)
(8.45945945946 -.1 0.825456530806)
(8.46846846847 -.1 0.832648726145)
(8.47747747748 -.1 0.839759418081)
(8.48648648649 -.1 0.846783012194)
(8.4954954955 -.1 0.85371391406)
(8.5045045045 -.1 0.86054651039)
(8.51351351351 -.1 0.867274753976)
(8.52252252252 -.1 0.87389216369)
(8.53153153153 -.1 0.880392239536)
(8.54054054054 -.1 0.886768481521)
(8.54954954955 -.1 0.893014389649)
(8.55855855856 -.1 0.899123463925)
(8.56756756757 -.1 0.905089204356)
(8.57657657658 -.1 0.910905110947)
(8.58558558559 -.1 0.916564683703)
(8.59459459459 -.1 0.922061422629)
(8.6036036036 -.1 0.92738882773)
(8.61261261261 -.1 0.932540399013)
(8.62162162162 -.1 0.937509636482)
(8.63063063063 -.1 0.942290040143)
(8.63963963964 -.1 0.946875110001)
(8.64864864865 -.1 0.951258346061)
(8.65765765766 -.1 0.95543324833)
(8.66666666667 -.1 0.959393316811)
(8.67567567568 -.1 0.963132051511)
(8.68468468468 -.1 0.966643671464)
(8.69369369369 -.1 0.969930403346)
(8.7027027027 -.1 0.972999478103)
(8.71171171171 -.1 0.975858203098)
(8.72072072072 -.1 0.978513885696)
(8.72972972973 -.1 0.980973833263)
(8.73873873874 -.1 0.983245353162)
(8.74774774775 -.1 0.98533575276)
(8.75675675676 -.1 0.98725233942)
(8.76576576577 -.1 0.989002420508)
(8.77477477477 -.1 0.990593303388)
(8.78378378378 -.1 0.992032295425)
(8.79279279279 -.1 0.993326703984)
(8.8018018018 -.1 0.99448383643)
(8.81081081081 -.1 0.995511000128)
(8.81981981982 -.1 0.996415502442)
(8.82882882883 -.1 0.997204650737)
(8.83783783784 -.1 0.997885752378)
(8.84684684685 -.1 0.998466114731)
(8.85585585586 -.1 0.998953045159)
(8.86486486486 -.1 0.999353851027)
(8.87387387387 -.1 0.999675839701)
(8.88288288288 -.1 0.999926318545)
(8.89189189189 -.1 1.0)
(8.9009009009 -.1 1.0)
(8.90990990991 -.1 1.0)
(8.91891891892 -.1 1.0)
(8.92792792793 -.1 1.0)
(8.93693693694 -.1 1.0)
(8.94594594595 -.1 1.0)
(8.95495495495 -.1 1.0)
(8.96396396396 -.1 1.0)
(8.97297297297 -.1 1.0)
(8.98198198198 -.1 1.0)
(8.99099099099 -.1 1.0)
(9.0 -.1 1.0)
)
spline 3 2 (
(0.0 .1 1.0)
(0.00900900900901 .1 1.0)
(0.018018018018 .1 1.0)
(0.027027027027 .1 1.0)