/*--------------------------------*- C++ -*----------------------------------*\
| =========                 |                                                 |
| \\      /  F ield         | OpenFOAM: The Open Source CFD Toolbox           |
|  \\    /   O peration     | Version:  2.3.0                                 |
|   \\  /    A nd           | Web:      www.OpenFOAM.org                      |
|    \\/     M anipulation  |                                                 |
\*---------------------------------------------------------------------------*/
FoamFile
{
    version     2.0;
    format      ascii;
    class       dictionary;
    object      blockMeshDict;
}
// * * * * * * * * * * * * * * * * * * * * * * * * * * * * * * * * * * * * * //

convertToMeters 1;

vertices
(
        (0   1.0    -.1  )//0
        (9   1.0    -.1  )//1
        (9   2.0    -.1  )//2
        (0   2.0    -.1  )//3
        (0   1.0     .1  )//4
        (9   1.0     .1  )//5
        (9   2.0     .1  )//6
        (0   2.0     .1  )//7
        (9   3.035  -.1  )//8
        (0   3.035  -.1  )//9
        (0   3.035   .1  )//10
        (9   3.035   .1  )//11
);

blocks
(
        //hex (0 1 3 2 6 7 9 8) (40 25 30) simpleGrading (1 10.7028 1)
        hex (0 1 2 3 4 5 6 7)   (120 65 1) simpleGrading (1 10 1)
        hex (3 2 8 9 7 6 11 10) (120 65 1) simpleGrading (1 .1 1)
);

/*
edges
(
      spline 0 1 ((0.25 -0.1 0.1))
      spline 3 2 ((0.75  0.1 0.1))
);
*/

//EDGES-START
edges
(
spline 0 1 (
(0.0 1.0 -.1 )
(0.00900900900901 1.0 -.1 )
(0.018018018018 1.0 -.1 )
(0.027027027027 1.0 -.1 )
(0.036036036036 1.0 -.1 )
(0.045045045045 1.0 -.1 )
(0.0540540540541 1.0 -.1 )
(0.0630630630631 1.0 -.1 )
(0.0720720720721 1.0 -.1 )
(0.0810810810811 1.0 -.1 )
(0.0900900900901 1.0 -.1 )
(0.0990990990991 1.0 -.1 )
(0.108108108108 1.0 -.1 )
(0.117117117117 0.999926318545 -.1 )
(0.126126126126 0.999675839701 -.1 )
(0.135135135135 0.999353851027 -.1 )
(0.144144144144 0.998953045159 -.1 )
(0.153153153153 0.998466114731 -.1 )
(0.162162162162 0.997885752378 -.1 )
(0.171171171171 0.997204650737 -.1 )
(0.18018018018 0.996415502442 -.1 )
(0.189189189189 0.995511000128 -.1 )
(0.198198198198 0.99448383643 -.1 )
(0.207207207207 0.993326703984 -.1 )
(0.216216216216 0.992032295425 -.1 )
(0.225225225225 0.990593303388 -.1 )
(0.234234234234 0.989002420508 -.1 )
(0.243243243243 0.98725233942 -.1 )
(0.252252252252 0.98533575276 -.1 )
(0.261261261261 0.983245353162 -.1 )
(0.27027027027 0.980973833263 -.1 )
(0.279279279279 0.978513885696 -.1 )
(0.288288288288 0.975858203098 -.1 )
(0.297297297297 0.972999478103 -.1 )
(0.306306306306 0.969930403346 -.1 )
(0.315315315315 0.966643671464 -.1 )
(0.324324324324 0.963132051511 -.1 )
(0.333333333333 0.959393316811 -.1 )
(0.342342342342 0.95543324833 -.1 )
(0.351351351351 0.951258346061 -.1 )
(0.36036036036 0.946875110001 -.1 )
(0.369369369369 0.942290040143 -.1 )
(0.378378378378 0.937509636482 -.1 )
(0.387387387387 0.932540399013 -.1 )
(0.396396396396 0.92738882773 -.1 )
(0.405405405405 0.922061422629 -.1 )
(0.414414414414 0.916564683703 -.1 )
(0.423423423423 0.910905110947 -.1 )
(0.432432432432 0.905089204356 -.1 )
(0.441441441441 0.899123463925 -.1 )
(0.45045045045 0.893014389649 -.1 )
(0.459459459459 0.886768481521 -.1 )
(0.468468468468 0.880392239536 -.1 )
(0.477477477477 0.87389216369 -.1 )
(0.486486486486 0.867274753976 -.1 )
(0.495495495495 0.86054651039 -.1 )
(0.504504504505 0.85371391406 -.1 )
(0.513513513514 0.846783012194 -.1 )
(0.522522522523 0.839759418081 -.1 )
(0.531531531532 0.832648726145 -.1 )
(0.540540540541 0.825456530806 -.1 )
(0.54954954955 0.818188426489 -.1 )
(0.558558558559 0.810850007615 -.1 )
(0.567567567568 0.803446868607 -.1 )
(0.576576576577 0.795984603888 -.1 )
(0.585585585586 0.788468807879 -.1 )
(0.594594594595 0.780905075005 -.1 )
(0.603603603604 0.773298999686 -.1 )
(0.612612612613 0.765656176347 -.1 )
(0.621621621622 0.757982199408 -.1 )
(0.630630630631 0.750282663294 -.1 )
(0.63963963964 0.742563162426 -.1 )
(0.648648648649 0.734829291228 -.1 )
(0.657657657658 0.72708664412 -.1 )
(0.666666666667 0.719340815527 -.1 )
(0.675675675676 0.711597399871 -.1 )
(0.684684684685 0.703861991574 -.1 )
(0.693693693694 0.696140185059 -.1 )
(0.702702702703 0.688437574749 -.1 )
(0.711711711712 0.680759755065 -.1 )
(0.720720720721 0.673111937382 -.1 )
(0.72972972973 0.665495570003 -.1 )
(0.738738738739 0.657909965352 -.1 )
(0.747747747748 0.650354411339 -.1 )
(0.756756756757 0.642828195871 -.1 )
(0.765765765766 0.635330606858 -.1 )
(0.774774774775 0.627860932208 -.1 )
(0.783783783784 0.62041845983 -.1 )
(0.792792792793 0.613002477633 -.1 )
(0.801801801802 0.605612273526 -.1 )
(0.810810810811 0.598247135417 -.1 )
(0.81981981982 0.590906351215 -.1 )
(0.828828828829 0.58358920883 -.1 )
(0.837837837838 0.576294996169 -.1 )
(0.846846846847 0.569023001141 -.1 )
(0.855855855856 0.561772511656 -.1 )
(0.864864864865 0.554542815622 -.1 )
(0.873873873874 0.547333200948 -.1 )
(0.882882882883 0.540142955543 -.1 )
(0.891891891892 0.532971367315 -.1 )
(0.900900900901 0.525817724173 -.1 )
(0.90990990991 0.518681314026 -.1 )
(0.918918918919 0.511561424783 -.1 )
(0.927927927928 0.504457344353 -.1 )
(0.936936936937 0.497368360644 -.1 )
(0.945945945946 0.490293761565 -.1 )
(0.954954954955 0.483232835025 -.1 )
(0.963963963964 0.476184868933 -.1 )
(0.972972972973 0.469149151197 -.1 )
(0.981981981982 0.462124969727 -.1 )
(0.990990990991 0.45511161243 -.1 )
(1.0 0.448108367217 -.1 )
(1.00900900901 0.441114521995 -.1 )
(1.01801801802 0.434129364673 -.1 )
(1.02702702703 0.427152183161 -.1 )
(1.03603603604 0.420182265366 -.1 )
(1.04504504505 0.413218899198 -.1 )
(1.05405405405 0.406261372566 -.1 )
(1.06306306306 0.399308973378 -.1 )
(1.07207207207 0.392360989718 -.1 )
(1.08108108108 0.385417297573 -.1 )
(1.09009009009 0.378479673026 -.1 )
(1.0990990991 0.371550275318 -.1 )
(1.10810810811 0.36463126369 -.1 )
(1.11711711712 0.357724797384 -.1 )
(1.12612612613 0.35083303564 -.1 )
(1.13513513514 0.343958137699 -.1 )
(1.14414414414 0.337102262803 -.1 )
(1.15315315315 0.330267570193 -.1 )
(1.16216216216 0.323456219109 -.1 )
(1.17117117117 0.316670368792 -.1 )
(1.18018018018 0.309912178485 -.1 )
(1.18918918919 0.303183807427 -.1 )
(1.1981981982 0.296487414861 -.1 )
(1.20720720721 0.289825160026 -.1 )
(1.21621621622 0.283199202164 -.1 )
(1.22522522523 0.276611700517 -.1 )
(1.23423423423 0.270064814325 -.1 )
(1.24324324324 0.263560702829 -.1 )
(1.25225225225 0.25710152527 -.1 )
(1.26126126126 0.250689440889 -.1 )
(1.27027027027 0.244326608929 -.1 )
(1.27927927928 0.238015188628 -.1 )
(1.28828828829 0.231757339229 -.1 )
(1.2972972973 0.225555219973 -.1 )
(1.30630630631 0.219410990101 -.1 )
(1.31531531532 0.213326808854 -.1 )
(1.32432432432 0.207304835472 -.1 )
(1.33333333333 0.201347229197 -.1 )
(1.34234234234 0.195456149271 -.1 )
(1.35135135135 0.189633754933 -.1 )
(1.36036036036 0.183882205426 -.1 )
(1.36936936937 0.178203659989 -.1 )
(1.37837837838 0.172600277865 -.1 )
(1.38738738739 0.167074218295 -.1 )
(1.3963963964 0.161627640519 -.1 )
(1.40540540541 0.156262703778 -.1 )
(1.41441441441 0.150981567314 -.1 )
(1.42342342342 0.145786390368 -.1 )
(1.43243243243 0.140679305058 -.1 )
(1.44144144144 0.135661547504 -.1 )
(1.45045045045 0.130733273999 -.1 )
(1.45945945946 0.125894576548 -.1 )
(1.46846846847 0.121145547159 -.1 )
(1.47747747748 0.116486277838 -.1 )
(1.48648648649 0.111916860591 -.1 )
(1.4954954955 0.107437387425 -.1 )
(1.5045045045 0.103047950346 -.1 )
(1.51351351351 0.0987486413614 -.1 )
(1.52252252252 0.0945395524765 -.1 )
(1.53153153153 0.0904207756982 -.1 )
(1.54054054054 0.086392403033 -.1 )
(1.54954954955 0.0824545264873 -.1 )
(1.55855855856 0.0786072380676 -.1 )
(1.56756756757 0.0748506297803 -.1 )
(1.57657657658 0.0711847936319 -.1 )
(1.58558558559 0.0676098216288 -.1 )
(1.59459459459 0.0641258057775 -.1 )
(1.6036036036 0.0607328380844 -.1 )
(1.61261261261 0.057431010556 -.1 )
(1.62162162162 0.0542204151988 -.1 )
(1.63063063063 0.0511011440192 -.1 )
(1.63963963964 0.0480732890236 -.1 )
(1.64864864865 0.0451369422185 -.1 )
(1.65765765766 0.0422921956104 -.1 )
(1.66666666667 0.0395391412057 -.1 )
(1.67567567568 0.0368778710109 -.1 )
(1.68468468468 0.0343084770324 -.1 )
(1.69369369369 0.0318310512766 -.1 )
(1.7027027027 0.0294456857501 -.1 )
(1.71171171171 0.0271524724593 -.1 )
(1.72072072072 0.0249515034105 -.1 )
(1.72972972973 0.0228428706104 -.1 )
(1.73873873874 0.0208266660653 -.1 )
(1.74774774775 0.0189029817817 -.1 )
(1.75675675676 0.017071909766 -.1 )
(1.76576576577 0.0153335420248 -.1 )
(1.77477477477 0.0136879705644 -.1 )
(1.78378378378 0.0121352873913 -.1 )
(1.79279279279 0.0106755845119 -.1 )
(1.8018018018 0.00930895393278 -.1 )
(1.81081081081 0.00803548766031 -.1 )
(1.81981981982 0.00685527770095 -.1 )
(1.82882882883 0.00576841606116 -.1 )
(1.83783783784 0.0047749947474 -.1 )
(1.84684684685 0.00387510576611 -.1 )
(1.85585585586 0.00306884112375 -.1 )
(1.86486486486 0.00235629282678 -.1 )
(1.87387387387 0.00173755288165 -.1 )
(1.88288288288 0.0012127132948 -.1 )
(1.89189189189 0.000781866072696 -.1 )
(1.9009009009 0.000445103221791 -.1 )
(1.90990990991 0.000202516748535 -.1 )
(1.91891891892 5.41986593816e-05 -.1 )
(1.92792792793 2.4096078561e-07 -.1 )
(1.93693693694 0.0 -.1 )
(1.94594594595 0.0 -.1 )
(1.95495495495 0.0 -.1 )
(1.96396396396 0.0 -.1 )
(1.97297297297 0.0 -.1 )
(1.98198198198 0.0 -.1 )
(1.99099099099 0.0 -.1 )
(2.0 0.0 -.1 )
(2.00900900901 0.0 -.1 )
(2.01801801802 0.0 -.1 )
(2.02702702703 0.0 -.1 )
(2.03603603604 0.0 -.1 )
(2.04504504505 0.0 -.1 )
(2.05405405405 0.0 -.1 )
(2.06306306306 0.0 -.1 )
(2.07207207207 0.0 -.1 )
(2.08108108108 0.0 -.1 )
(2.09009009009 0.0 -.1 )
(2.0990990991 0.0 -.1 )
(2.10810810811 0.0 -.1 )
(2.11711711712 0.0 -.1 )
(2.12612612613 0.0 -.1 )
(2.13513513514 0.0 -.1 )
(2.14414414414 0.0 -.1 )
(2.15315315315 0.0 -.1 )
(2.16216216216 0.0 -.1 )
(2.17117117117 0.0 -.1 )
(2.18018018018 0.0 -.1 )
(2.18918918919 0.0 -.1 )
(2.1981981982 0.0 -.1 )
(2.20720720721 0.0 -.1 )
(2.21621621622 0.0 -.1 )
(2.22522522523 0.0 -.1 )
(2.23423423423 0.0 -.1 )
(2.24324324324 0.0 -.1 )
(2.25225225225 0.0 -.1 )
(2.26126126126 0.0 -.1 )
(2.27027027027 0.0 -.1 )
(2.27927927928 0.0 -.1 )
(2.28828828829 0.0 -.1 )
(2.2972972973 0.0 -.1 )
(2.30630630631 0.0 -.1 )
(2.31531531532 0.0 -.1 )
(2.32432432432 0.0 -.1 )
(2.33333333333 0.0 -.1 )
(2.34234234234 0.0 -.1 )
(2.35135135135 0.0 -.1 )
(2.36036036036 0.0 -.1 )
(2.36936936937 0.0 -.1 )
(2.37837837838 0.0 -.1 )
(2.38738738739 0.0 -.1 )
(2.3963963964 0.0 -.1 )
(2.40540540541 0.0 -.1 )
(2.41441441441 0.0 -.1 )
(2.42342342342 0.0 -.1 )
(2.43243243243 0.0 -.1 )
(2.44144144144 0.0 -.1 )
(2.45045045045 0.0 -.1 )
(2.45945945946 0.0 -.1 )
(2.46846846847 0.0 -.1 )
(2.47747747748 0.0 -.1 )
(2.48648648649 0.0 -.1 )
(2.4954954955 0.0 -.1 )
(2.5045045045 0.0 -.1 )
(2.51351351351 0.0 -.1 )
(2.52252252252 0.0 -.1 )
(2.53153153153 0.0 -.1 )
(2.54054054054 0.0 -.1 )
(2.54954954955 0.0 -.1 )
(2.55855855856 0.0 -.1 )
(2.56756756757 0.0 -.1 )
(2.57657657658 0.0 -.1 )
(2.58558558559 0.0 -.1 )
(2.59459459459 0.0 -.1 )
(2.6036036036 0.0 -.1 )
(2.61261261261 0.0 -.1 )
(2.62162162162 0.0 -.1 )
(2.63063063063 0.0 -.1 )
(2.63963963964 0.0 -.1 )
(2.64864864865 0.0 -.1 )
(2.65765765766 0.0 -.1 )
(2.66666666667 0.0 -.1 )
(2.67567567568 0.0 -.1 )
(2.68468468468 0.0 -.1 )
(2.69369369369 0.0 -.1 )
(2.7027027027 0.0 -.1 )
(2.71171171171 0.0 -.1 )
(2.72072072072 0.0 -.1 )
(2.72972972973 0.0 -.1 )
(2.73873873874 0.0 -.1 )
(2.74774774775 0.0 -.1 )
(2.75675675676 0.0 -.1 )
(2.76576576577 0.0 -.1 )
(2.77477477477 0.0 -.1 )
(2.78378378378 0.0 -.1 )
(2.79279279279 0.0 -.1 )
(2.8018018018 0.0 -.1 )
(2.81081081081 0.0 -.1 )
(2.81981981982 0.0 -.1 )
(2.82882882883 0.0 -.1 )
(2.83783783784 0.0 -.1 )
(2.84684684685 0.0 -.1 )
(2.85585585586 0.0 -.1 )
(2.86486486486 0.0 -.1 )
(2.87387387387 0.0 -.1 )
(2.88288288288 0.0 -.1 )
(2.89189189189 0.0 -.1 )
(2.9009009009 0.0 -.1 )
(2.90990990991 0.0 -.1 )
(2.91891891892 0.0 -.1 )
(2.92792792793 0.0 -.1 )
(2.93693693694 0.0 -.1 )
(2.94594594595 0.0 -.1 )
(2.95495495495 0.0 -.1 )
(2.96396396396 0.0 -.1 )
(2.97297297297 0.0 -.1 )
(2.98198198198 0.0 -.1 )
(2.99099099099 0.0 -.1 )
(3.0 0.0 -.1 )
(3.00900900901 0.0 -.1 )
(3.01801801802 0.0 -.1 )
(3.02702702703 0.0 -.1 )
(3.03603603604 0.0 -.1 )
(3.04504504505 0.0 -.1 )
(3.05405405405 0.0 -.1 )
(3.06306306306 0.0 -.1 )
(3.07207207207 0.0 -.1 )
(3.08108108108 0.0 -.1 )
(3.09009009009 0.0 -.1 )
(3.0990990991 0.0 -.1 )
(3.10810810811 0.0 -.1 )
(3.11711711712 0.0 -.1 )
(3.12612612613 0.0 -.1 )
(3.13513513514 0.0 -.1 )
(3.14414414414 0.0 -.1 )
(3.15315315315 0.0 -.1 )
(3.16216216216 0.0 -.1 )
(3.17117117117 0.0 -.1 )
(3.18018018018 0.0 -.1 )
(3.18918918919 0.0 -.1 )
(3.1981981982 0.0 -.1 )
(3.20720720721 0.0 -.1 )
(3.21621621622 0.0 -.1 )
(3.22522522523 0.0 -.1 )
(3.23423423423 0.0 -.1 )
(3.24324324324 0.0 -.1 )
(3.25225225225 0.0 -.1 )
(3.26126126126 0.0 -.1 )
(3.27027027027 0.0 -.1 )
(3.27927927928 0.0 -.1 )
(3.28828828829 0.0 -.1 )
(3.2972972973 0.0 -.1 )
(3.30630630631 0.0 -.1 )
(3.31531531532 0.0 -.1 )
(3.32432432432 0.0 -.1 )
(3.33333333333 0.0 -.1 )
(3.34234234234 0.0 -.1 )
(3.35135135135 0.0 -.1 )
(3.36036036036 0.0 -.1 )
(3.36936936937 0.0 -.1 )
(3.37837837838 0.0 -.1 )
(3.38738738739 0.0 -.1 )
(3.3963963964 0.0 -.1 )
(3.40540540541 0.0 -.1 )
(3.41441441441 0.0 -.1 )
(3.42342342342 0.0 -.1 )
(3.43243243243 0.0 -.1 )
(3.44144144144 0.0 -.1 )
(3.45045045045 0.0 -.1 )
(3.45945945946 0.0 -.1 )
(3.46846846847 0.0 -.1 )
(3.47747747748 0.0 -.1 )
(3.48648648649 0.0 -.1 )
(3.4954954955 0.0 -.1 )
(3.5045045045 0.0 -.1 )
(3.51351351351 0.0 -.1 )
(3.52252252252 0.0 -.1 )
(3.53153153153 0.0 -.1 )
(3.54054054054 0.0 -.1 )
(3.54954954955 0.0 -.1 )
(3.55855855856 0.0 -.1 )
(3.56756756757 0.0 -.1 )
(3.57657657658 0.0 -.1 )
(3.58558558559 0.0 -.1 )
(3.59459459459 0.0 -.1 )
(3.6036036036 0.0 -.1 )
(3.61261261261 0.0 -.1 )
(3.62162162162 0.0 -.1 )
(3.63063063063 0.0 -.1 )
(3.63963963964 0.0 -.1 )
(3.64864864865 0.0 -.1 )
(3.65765765766 0.0 -.1 )
(3.66666666667 0.0 -.1 )
(3.67567567568 0.0 -.1 )
(3.68468468468 0.0 -.1 )
(3.69369369369 0.0 -.1 )
(3.7027027027 0.0 -.1 )
(3.71171171171 0.0 -.1 )
(3.72072072072 0.0 -.1 )
(3.72972972973 0.0 -.1 )
(3.73873873874 0.0 -.1 )
(3.74774774775 0.0 -.1 )
(3.75675675676 0.0 -.1 )
(3.76576576577 0.0 -.1 )
(3.77477477477 0.0 -.1 )
(3.78378378378 0.0 -.1 )
(3.79279279279 0.0 -.1 )
(3.8018018018 0.0 -.1 )
(3.81081081081 0.0 -.1 )
(3.81981981982 0.0 -.1 )
(3.82882882883 0.0 -.1 )
(3.83783783784 0.0 -.1 )
(3.84684684685 0.0 -.1 )
(3.85585585586 0.0 -.1 )
(3.86486486486 0.0 -.1 )
(3.87387387387 0.0 -.1 )
(3.88288288288 0.0 -.1 )
(3.89189189189 0.0 -.1 )
(3.9009009009 0.0 -.1 )
(3.90990990991 0.0 -.1 )
(3.91891891892 0.0 -.1 )
(3.92792792793 0.0 -.1 )
(3.93693693694 0.0 -.1 )
(3.94594594595 0.0 -.1 )
(3.95495495495 0.0 -.1 )
(3.96396396396 0.0 -.1 )
(3.97297297297 0.0 -.1 )
(3.98198198198 0.0 -.1 )
(3.99099099099 0.0 -.1 )
(4.0 0.0 -.1 )
(4.00900900901 0.0 -.1 )
(4.01801801802 0.0 -.1 )
(4.02702702703 0.0 -.1 )
(4.03603603604 0.0 -.1 )
(4.04504504505 0.0 -.1 )
(4.05405405405 0.0 -.1 )
(4.06306306306 0.0 -.1 )
(4.07207207207 0.0 -.1 )
(4.08108108108 0.0 -.1 )
(4.09009009009 0.0 -.1 )
(4.0990990991 0.0 -.1 )
(4.10810810811 0.0 -.1 )
(4.11711711712 0.0 -.1 )
(4.12612612613 0.0 -.1 )
(4.13513513514 0.0 -.1 )
(4.14414414414 0.0 -.1 )
(4.15315315315 0.0 -.1 )
(4.16216216216 0.0 -.1 )
(4.17117117117 0.0 -.1 )
(4.18018018018 0.0 -.1 )
(4.18918918919 0.0 -.1 )
(4.1981981982 0.0 -.1 )
(4.20720720721 0.0 -.1 )
(4.21621621622 0.0 -.1 )
(4.22522522523 0.0 -.1 )
(4.23423423423 0.0 -.1 )
(4.24324324324 0.0 -.1 )
(4.25225225225 0.0 -.1 )
(4.26126126126 0.0 -.1 )
(4.27027027027 0.0 -.1 )
(4.27927927928 0.0 -.1 )
(4.28828828829 0.0 -.1 )
(4.2972972973 0.0 -.1 )
(4.30630630631 0.0 -.1 )
(4.31531531532 0.0 -.1 )
(4.32432432432 0.0 -.1 )
(4.33333333333 0.0 -.1 )
(4.34234234234 0.0 -.1 )
(4.35135135135 0.0 -.1 )
(4.36036036036 0.0 -.1 )
(4.36936936937 0.0 -.1 )
(4.37837837838 0.0 -.1 )
(4.38738738739 0.0 -.1 )
(4.3963963964 0.0 -.1 )
(4.40540540541 0.0 -.1 )
(4.41441441441 0.0 -.1 )
(4.42342342342 0.0 -.1 )
(4.43243243243 0.0 -.1 )
(4.44144144144 0.0 -.1 )
(4.45045045045 0.0 -.1 )
(4.45945945946 0.0 -.1 )
(4.46846846847 0.0 -.1 )
(4.47747747748 0.0 -.1 )
(4.48648648649 0.0 -.1 )
(4.4954954955 0.0 -.1 )
(4.5045045045 0.0 -.1 )
(4.51351351351 0.0 -.1 )
(4.52252252252 0.0 -.1 )
(4.53153153153 0.0 -.1 )
(4.54054054054 0.0 -.1 )
(4.54954954955 0.0 -.1 )
(4.55855855856 0.0 -.1 )
(4.56756756757 0.0 -.1 )
(4.57657657658 0.0 -.1 )
(4.58558558559 0.0 -.1 )
(4.59459459459 0.0 -.1 )
(4.6036036036 0.0 -.1 )
(4.61261261261 0.0 -.1 )
(4.62162162162 0.0 -.1 )
(4.63063063063 0.0 -.1 )
(4.63963963964 0.0 -.1 )
(4.64864864865 0.0 -.1 )
(4.65765765766 0.0 -.1 )
(4.66666666667 0.0 -.1 )
(4.67567567568 0.0 -.1 )
(4.68468468468 0.0 -.1 )
(4.69369369369 0.0 -.1 )
(4.7027027027 0.0 -.1 )
(4.71171171171 0.0 -.1 )
(4.72072072072 0.0 -.1 )
(4.72972972973 0.0 -.1 )
(4.73873873874 0.0 -.1 )
(4.74774774775 0.0 -.1 )
(4.75675675676 0.0 -.1 )
(4.76576576577 0.0 -.1 )
(4.77477477477 0.0 -.1 )
(4.78378378378 0.0 -.1 )
(4.79279279279 0.0 -.1 )
(4.8018018018 0.0 -.1 )
(4.81081081081 0.0 -.1 )
(4.81981981982 0.0 -.1 )
(4.82882882883 0.0 -.1 )
(4.83783783784 0.0 -.1 )
(4.84684684685 0.0 -.1 )
(4.85585585586 0.0 -.1 )
(4.86486486486 0.0 -.1 )
(4.87387387387 0.0 -.1 )
(4.88288288288 0.0 -.1 )
(4.89189189189 0.0 -.1 )
(4.9009009009 0.0 -.1 )
(4.90990990991 0.0 -.1 )
(4.91891891892 0.0 -.1 )
(4.92792792793 0.0 -.1 )
(4.93693693694 0.0 -.1 )
(4.94594594595 0.0 -.1 )
(4.95495495495 0.0 -.1 )
(4.96396396396 0.0 -.1 )
(4.97297297297 0.0 -.1 )
(4.98198198198 0.0 -.1 )
(4.99099099099 0.0 -.1 )
(5.0 0.0 -.1 )
(5.00900900901 0.0 -.1 )
(5.01801801802 0.0 -.1 )
(5.02702702703 0.0 -.1 )
(5.03603603604 0.0 -.1 )
(5.04504504505 0.0 -.1 )
(5.05405405405 0.0 -.1 )
(5.06306306306 0.0 -.1 )
(5.07207207207 0.0 -.1 )
(5.08108108108 0.0 -.1 )
(5.09009009009 0.0 -.1 )
(5.0990990991 0.0 -.1 )
(5.10810810811 0.0 -.1 )
(5.11711711712 0.0 -.1 )
(5.12612612613 0.0 -.1 )
(5.13513513514 0.0 -.1 )
(5.14414414414 0.0 -.1 )
(5.15315315315 0.0 -.1 )
(5.16216216216 0.0 -.1 )
(5.17117117117 0.0 -.1 )
(5.18018018018 0.0 -.1 )
(5.18918918919 0.0 -.1 )
(5.1981981982 0.0 -.1 )
(5.20720720721 0.0 -.1 )
(5.21621621622 0.0 -.1 )
(5.22522522523 0.0 -.1 )
(5.23423423423 0.0 -.1 )
(5.24324324324 0.0 -.1 )
(5.25225225225 0.0 -.1 )
(5.26126126126 0.0 -.1 )
(5.27027027027 0.0 -.1 )
(5.27927927928 0.0 -.1 )
(5.28828828829 0.0 -.1 )
(5.2972972973 0.0 -.1 )
(5.30630630631 0.0 -.1 )
(5.31531531532 0.0 -.1 )
(5.32432432432 0.0 -.1 )
(5.33333333333 0.0 -.1 )
(5.34234234234 0.0 -.1 )
(5.35135135135 0.0 -.1 )
(5.36036036036 0.0 -.1 )
(5.36936936937 0.0 -.1 )
(5.37837837838 0.0 -.1 )
(5.38738738739 0.0 -.1 )
(5.3963963964 0.0 -.1 )
(5.40540540541 0.0 -.1 )
(5.41441441441 0.0 -.1 )
(5.42342342342 0.0 -.1 )
(5.43243243243 0.0 -.1 )
(5.44144144144 0.0 -.1 )
(5.45045045045 0.0 -.1 )
(5.45945945946 0.0 -.1 )
(5.46846846847 0.0 -.1 )
(5.47747747748 0.0 -.1 )
(5.48648648649 0.0 -.1 )
(5.4954954955 0.0 -.1 )
(5.5045045045 0.0 -.1 )
(5.51351351351 0.0 -.1 )
(5.52252252252 0.0 -.1 )
(5.53153153153 0.0 -.1 )
(5.54054054054 0.0 -.1 )
(5.54954954955 0.0 -.1 )
(5.55855855856 0.0 -.1 )
(5.56756756757 0.0 -.1 )
(5.57657657658 0.0 -.1 )
(5.58558558559 0.0 -.1 )
(5.59459459459 0.0 -.1 )
(5.6036036036 0.0 -.1 )
(5.61261261261 0.0 -.1 )
(5.62162162162 0.0 -.1 )
(5.63063063063 0.0 -.1 )
(5.63963963964 0.0 -.1 )
(5.64864864865 0.0 -.1 )
(5.65765765766 0.0 -.1 )
(5.66666666667 0.0 -.1 )
(5.67567567568 0.0 -.1 )
(5.68468468468 0.0 -.1 )
(5.69369369369 0.0 -.1 )
(5.7027027027 0.0 -.1 )
(5.71171171171 0.0 -.1 )
(5.72072072072 0.0 -.1 )
(5.72972972973 0.0 -.1 )
(5.73873873874 0.0 -.1 )
(5.74774774775 0.0 -.1 )
(5.75675675676 0.0 -.1 )
(5.76576576577 0.0 -.1 )
(5.77477477477 0.0 -.1 )
(5.78378378378 0.0 -.1 )
(5.79279279279 0.0 -.1 )
(5.8018018018 0.0 -.1 )
(5.81081081081 0.0 -.1 )
(5.81981981982 0.0 -.1 )
(5.82882882883 0.0 -.1 )
(5.83783783784 0.0 -.1 )
(5.84684684685 0.0 -.1 )
(5.85585585586 0.0 -.1 )
(5.86486486486 0.0 -.1 )
(5.87387387387 0.0 -.1 )
(5.88288288288 0.0 -.1 )
(5.89189189189 0.0 -.1 )
(5.9009009009 0.0 -.1 )
(5.90990990991 0.0 -.1 )
(5.91891891892 0.0 -.1 )
(5.92792792793 0.0 -.1 )
(5.93693693694 0.0 -.1 )
(5.94594594595 0.0 -.1 )
(5.95495495495 0.0 -.1 )
(5.96396396396 0.0 -.1 )
(5.97297297297 0.0 -.1 )
(5.98198198198 0.0 -.1 )
(5.99099099099 0.0 -.1 )
(6.0 0.0 -.1 )
(6.00900900901 0.0 -.1 )
(6.01801801802 0.0 -.1 )
(6.02702702703 0.0 -.1 )
(6.03603603604 0.0 -.1 )
(6.04504504505 0.0 -.1 )
(6.05405405405 0.0 -.1 )
(6.06306306306 0.0 -.1 )
(6.07207207207 0.0 -.1 )
(6.08108108108 0.0 -.1 )
(6.09009009009 0.0 -.1 )
(6.0990990991 0.0 -.1 )
(6.10810810811 0.0 -.1 )
(6.11711711712 0.0 -.1 )
(6.12612612613 0.0 -.1 )
(6.13513513514 0.0 -.1 )
(6.14414414414 0.0 -.1 )
(6.15315315315 0.0 -.1 )
(6.16216216216 0.0 -.1 )
(6.17117117117 0.0 -.1 )
(6.18018018018 0.0 -.1 )
(6.18918918919 0.0 -.1 )
(6.1981981982 0.0 -.1 )
(6.20720720721 0.0 -.1 )
(6.21621621622 0.0 -.1 )
(6.22522522523 0.0 -.1 )
(6.23423423423 0.0 -.1 )
(6.24324324324 0.0 -.1 )
(6.25225225225 0.0 -.1 )
(6.26126126126 0.0 -.1 )
(6.27027027027 0.0 -.1 )
(6.27927927928 0.0 -.1 )
(6.28828828829 0.0 -.1 )
(6.2972972973 0.0 -.1 )
(6.30630630631 0.0 -.1 )
(6.31531531532 0.0 -.1 )
(6.32432432432 0.0 -.1 )
(6.33333333333 0.0 -.1 )
(6.34234234234 0.0 -.1 )
(6.35135135135 0.0 -.1 )
(6.36036036036 0.0 -.1 )
(6.36936936937 0.0 -.1 )
(6.37837837838 0.0 -.1 )
(6.38738738739 0.0 -.1 )
(6.3963963964 0.0 -.1 )
(6.40540540541 0.0 -.1 )
(6.41441441441 0.0 -.1 )
(6.42342342342 0.0 -.1 )
(6.43243243243 0.0 -.1 )
(6.44144144144 0.0 -.1 )
(6.45045045045 0.0 -.1 )
(6.45945945946 0.0 -.1 )
(6.46846846847 0.0 -.1 )
(6.47747747748 0.0 -.1 )
(6.48648648649 0.0 -.1 )
(6.4954954955 0.0 -.1 )
(6.5045045045 0.0 -.1 )
(6.51351351351 0.0 -.1 )
(6.52252252252 0.0 -.1 )
(6.53153153153 0.0 -.1 )
(6.54054054054 0.0 -.1 )
(6.54954954955 0.0 -.1 )
(6.55855855856 0.0 -.1 )
(6.56756756757 0.0 -.1 )
(6.57657657658 0.0 -.1 )
(6.58558558559 0.0 -.1 )
(6.59459459459 0.0 -.1 )
(6.6036036036 0.0 -.1 )
(6.61261261261 0.0 -.1 )
(6.62162162162 0.0 -.1 )
(6.63063063063 0.0 -.1 )
(6.63963963964 0.0 -.1 )
(6.64864864865 0.0 -.1 )
(6.65765765766 0.0 -.1 )
(6.66666666667 0.0 -.1 )
(6.67567567568 0.0 -.1 )
(6.68468468468 0.0 -.1 )
(6.69369369369 0.0 -.1 )
(6.7027027027 0.0 -.1 )
(6.71171171171 0.0 -.1 )
(6.72072072072 0.0 -.1 )
(6.72972972973 0.0 -.1 )
(6.73873873874 0.0 -.1 )
(6.74774774775 0.0 -.1 )
(6.75675675676 0.0 -.1 )
(6.76576576577 0.0 -.1 )
(6.77477477477 0.0 -.1 )
(6.78378378378 0.0 -.1 )
(6.79279279279 0.0 -.1 )
(6.8018018018 0.0 -.1 )
(6.81081081081 0.0 -.1 )
(6.81981981982 0.0 -.1 )
(6.82882882883 0.0 -.1 )
(6.83783783784 0.0 -.1 )
(6.84684684685 0.0 -.1 )
(6.85585585586 0.0 -.1 )
(6.86486486486 0.0 -.1 )
(6.87387387387 0.0 -.1 )
(6.88288288288 0.0 -.1 )
(6.89189189189 0.0 -.1 )
(6.9009009009 0.0 -.1 )
(6.90990990991 0.0 -.1 )
(6.91891891892 0.0 -.1 )
(6.92792792793 0.0 -.1 )
(6.93693693694 0.0 -.1 )
(6.94594594595 0.0 -.1 )
(6.95495495495 0.0 -.1 )
(6.96396396396 0.0 -.1 )
(6.97297297297 0.0 -.1 )
(6.98198198198 0.0 -.1 )
(6.99099099099 0.0 -.1 )
(7.0 0.0 -.1 )
(7.00900900901 0.0 -.1 )
(7.01801801802 0.0 -.1 )
(7.02702702703 0.0 -.1 )
(7.03603603604 0.0 -.1 )
(7.04504504505 0.0 -.1 )
(7.05405405405 0.0 -.1 )
(7.06306306306 0.0 -.1 )
(7.07207207207 2.4096078561e-07 -.1 )
(7.08108108108 5.41986593816e-05 -.1 )
(7.09009009009 0.000202516748535 -.1 )
(7.0990990991 0.000445103221791 -.1 )
(7.10810810811 0.000781866072696 -.1 )
(7.11711711712 0.0012127132948 -.1 )
(7.12612612613 0.00173755288165 -.1 )
(7.13513513514 0.00235629282678 -.1 )
(7.14414414414 0.00306884112375 -.1 )
(7.15315315315 0.00387510576611 -.1 )
(7.16216216216 0.0047749947474 -.1 )
(7.17117117117 0.00576841606116 -.1 )
(7.18018018018 0.00685527770095 -.1 )
(7.18918918919 0.00803548766031 -.1 )
(7.1981981982 0.00930895393278 -.1 )
(7.20720720721 0.0106755845119 -.1 )
(7.21621621622 0.0121352873913 -.1 )
(7.22522522523 0.0136879705644 -.1 )
(7.23423423423 0.0153335420248 -.1 )
(7.24324324324 0.017071909766 -.1 )
(7.25225225225 0.0189029817817 -.1 )
(7.26126126126 0.0208266660653 -.1 )
(7.27027027027 0.0228428706104 -.1 )
(7.27927927928 0.0249515034105 -.1 )
(7.28828828829 0.0271524724593 -.1 )
(7.2972972973 0.0294456857501 -.1 )
(7.30630630631 0.0318310512766 -.1 )
(7.31531531532 0.0343084770324 -.1 )
(7.32432432432 0.0368778710109 -.1 )
(7.33333333333 0.0395391412057 -.1 )
(7.34234234234 0.0422921956104 -.1 )
(7.35135135135 0.0451369422185 -.1 )
(7.36036036036 0.0480732890236 -.1 )
(7.36936936937 0.0511011440192 -.1 )
(7.37837837838 0.0542204151988 -.1 )
(7.38738738739 0.057431010556 -.1 )
(7.3963963964 0.0607328380844 -.1 )
(7.40540540541 0.0641258057775 -.1 )
(7.41441441441 0.0676098216288 -.1 )
(7.42342342342 0.0711847936319 -.1 )
(7.43243243243 0.0748506297803 -.1 )
(7.44144144144 0.0786072380676 -.1 )
(7.45045045045 0.0824545264873 -.1 )
(7.45945945946 0.086392403033 -.1 )
(7.46846846847 0.0904207756982 -.1 )
(7.47747747748 0.0945395524765 -.1 )
(7.48648648649 0.0987486413614 -.1 )
(7.4954954955 0.103047950346 -.1 )
(7.5045045045 0.107437387425 -.1 )
(7.51351351351 0.111916860591 -.1 )
(7.52252252252 0.116486277838 -.1 )
(7.53153153153 0.121145547159 -.1 )
(7.54054054054 0.125894576548 -.1 )
(7.54954954955 0.130733273999 -.1 )
(7.55855855856 0.135661547504 -.1 )
(7.56756756757 0.140679305058 -.1 )
(7.57657657658 0.145786390368 -.1 )
(7.58558558559 0.150981567314 -.1 )
(7.59459459459 0.156262703778 -.1 )
(7.6036036036 0.161627640519 -.1 )
(7.61261261261 0.167074218295 -.1 )
(7.62162162162 0.172600277865 -.1 )
(7.63063063063 0.178203659989 -.1 )
(7.63963963964 0.183882205426 -.1 )
(7.64864864865 0.189633754933 -.1 )
(7.65765765766 0.195456149271 -.1 )
(7.66666666667 0.201347229197 -.1 )
(7.67567567568 0.207304835472 -.1 )
(7.68468468468 0.213326808854 -.1 )
(7.69369369369 0.219410990101 -.1 )
(7.7027027027 0.225555219973 -.1 )
(7.71171171171 0.231757339229 -.1 )
(7.72072072072 0.238015188628 -.1 )
(7.72972972973 0.244326608929 -.1 )
(7.73873873874 0.250689440889 -.1 )
(7.74774774775 0.25710152527 -.1 )
(7.75675675676 0.263560702829 -.1 )
(7.76576576577 0.270064814325 -.1 )
(7.77477477477 0.276611700517 -.1 )
(7.78378378378 0.283199202164 -.1 )
(7.79279279279 0.289825160026 -.1 )
(7.8018018018 0.296487414861 -.1 )
(7.81081081081 0.303183807427 -.1 )
(7.81981981982 0.309912178485 -.1 )
(7.82882882883 0.316670368792 -.1 )
(7.83783783784 0.323456219109 -.1 )
(7.84684684685 0.330267570193 -.1 )
(7.85585585586 0.337102262803 -.1 )
(7.86486486486 0.343958137699 -.1 )
(7.87387387387 0.35083303564 -.1 )
(7.88288288288 0.357724797384 -.1 )
(7.89189189189 0.36463126369 -.1 )
(7.9009009009 0.371550275318 -.1 )
(7.90990990991 0.378479673026 -.1 )
(7.91891891892 0.385417297573 -.1 )
(7.92792792793 0.392360989718 -.1 )
(7.93693693694 0.399308973378 -.1 )
(7.94594594595 0.406261372566 -.1 )
(7.95495495495 0.413218899198 -.1 )
(7.96396396396 0.420182265366 -.1 )
(7.97297297297 0.427152183161 -.1 )
(7.98198198198 0.434129364673 -.1 )
(7.99099099099 0.441114521995 -.1 )
(8.0 0.448108367217 -.1 )
(8.00900900901 0.45511161243 -.1 )
(8.01801801802 0.462124969727 -.1 )
(8.02702702703 0.469149151197 -.1 )
(8.03603603604 0.476184868933 -.1 )
(8.04504504505 0.483232835025 -.1 )
(8.05405405405 0.490293761565 -.1 )
(8.06306306306 0.497368360644 -.1 )
(8.07207207207 0.504457344353 -.1 )
(8.08108108108 0.511561424783 -.1 )
(8.09009009009 0.518681314026 -.1 )
(8.0990990991 0.525817724173 -.1 )
(8.10810810811 0.532971367315 -.1 )
(8.11711711712 0.540142955543 -.1 )
(8.12612612613 0.547333200948 -.1 )
(8.13513513514 0.554542815622 -.1 )
(8.14414414414 0.561772511656 -.1 )
(8.15315315315 0.569023001141 -.1 )
(8.16216216216 0.576294996169 -.1 )
(8.17117117117 0.58358920883 -.1 )
(8.18018018018 0.590906351215 -.1 )
(8.18918918919 0.598247135417 -.1 )
(8.1981981982 0.605612273526 -.1 )
(8.20720720721 0.613002477633 -.1 )
(8.21621621622 0.62041845983 -.1 )
(8.22522522523 0.627860932208 -.1 )
(8.23423423423 0.635330606858 -.1 )
(8.24324324324 0.642828195871 -.1 )
(8.25225225225 0.650354411339 -.1 )
(8.26126126126 0.657909965352 -.1 )
(8.27027027027 0.665495570003 -.1 )
(8.27927927928 0.673111937382 -.1 )
(8.28828828829 0.680759755065 -.1 )
(8.2972972973 0.688437574749 -.1 )
(8.30630630631 0.696140185059 -.1 )
(8.31531531532 0.703861991574 -.1 )
(8.32432432432 0.711597399871 -.1 )
(8.33333333333 0.719340815527 -.1 )
(8.34234234234 0.72708664412 -.1 )
(8.35135135135 0.734829291228 -.1 )
(8.36036036036 0.742563162426 -.1 )
(8.36936936937 0.750282663294 -.1 )
(8.37837837838 0.757982199408 -.1 )
(8.38738738739 0.765656176347 -.1 )
(8.3963963964 0.773298999686 -.1 )
(8.40540540541 0.780905075005 -.1 )
(8.41441441441 0.788468807879 -.1 )
(8.42342342342 0.795984603888 -.1 )
(8.43243243243 0.803446868607 -.1 )
(8.44144144144 0.810850007615 -.1 )
(8.45045045045 0.818188426489 -.1 )
(8.45945945946 0.825456530806 -.1 )
(8.46846846847 0.832648726145 -.1 )
(8.47747747748 0.839759418081 -.1 )
(8.48648648649 0.846783012194 -.1 )
(8.4954954955 0.85371391406 -.1 )
(8.5045045045 0.86054651039 -.1 )
(8.51351351351 0.867274753976 -.1 )
(8.52252252252 0.87389216369 -.1 )
(8.53153153153 0.880392239536 -.1 )
(8.54054054054 0.886768481521 -.1 )
(8.54954954955 0.893014389649 -.1 )
(8.55855855856 0.899123463925 -.1 )
(8.56756756757 0.905089204356 -.1 )
(8.57657657658 0.910905110947 -.1 )
(8.58558558559 0.916564683703 -.1 )
(8.59459459459 0.922061422629 -.1 )
(8.6036036036 0.92738882773 -.1 )
(8.61261261261 0.932540399013 -.1 )
(8.62162162162 0.937509636482 -.1 )
(8.63063063063 0.942290040143 -.1 )
(8.63963963964 0.946875110001 -.1 )
(8.64864864865 0.951258346061 -.1 )
(8.65765765766 0.95543324833 -.1 )
(8.66666666667 0.959393316811 -.1 )
(8.67567567568 0.963132051511 -.1 )
(8.68468468468 0.966643671464 -.1 )
(8.69369369369 0.969930403346 -.1 )
(8.7027027027 0.972999478103 -.1 )
(8.71171171171 0.975858203098 -.1 )
(8.72072072072 0.978513885696 -.1 )