/*--------------------------------*- C++ -*----------------------------------*\
| =========                 |                                                 |
| \\      /  F ield         | OpenFOAM: The Open Source CFD Toolbox           |
|  \\    /   O peration     | Version:  2.1.1                                 |
|   \\  /    A nd           | Web:      www.OpenFOAM.org                      |
|    \\/     M anipulation  |                                                 |
\*---------------------------------------------------------------------------*/
FoamFile
{
    version     2.0;
    format      ascii;
    class       dictionary;
    location    "system";
    object      controlDict;
}
// * * * * * * * * * * * * * * * * * * * * * * * * * * * * * * * * * * * * * //

application     simpleFoam;

startFrom       startTime;

startTime       0;

stopAt          endTime;

endTime         3500;

deltaT          1;

writeControl    timeStep;

writeInterval   100;

purgeWrite      1;

writeFormat     ascii;

writePrecision  9;

writeCompression off;

timeFormat      fixed;

timePrecision   0;

runTimeModifiable false;

libs ( "libPDAIncompressibleTurbulenceModels" );

functions
{
    wallShearStress
    {
        // Mandatory entries (unmodifiable)
        type            wallShearStress;
        libs            (fieldFunctionObjects);

        // Optional (inherited) entries
        writePrecision  8;
        writeToFile     true;
        useUserTime     true;
        region          region0;
        enabled         true;
        log             false;
        executeControl  writeTime;
        executeInterval 1;
        writeControl    writeTime;
        writeInterval   1;
    }
}


// ************************************************************************* //
